<nodes>
    <node id="4554" x="13221226.885437006" y="3602033.339150908"/>
    <node id="4634" x="13221068.760553116" y="3602734.593646755"/>
    <node id="4497" x="13220818.113587644" y="3601268.348185391"/>
    <node id="4536" x="13220002.188474316" y="3601903.064371234"/>
    <node id="4635" x="13219838.325070672" y="3602776.484124534"/>
    <node id="4630" x="13217061.76716936" y="3602769.000987198"/>
    <node id="4603" x="13216902.630946532" y="3602488.317538297"/>
    <node id="4680" x="13217305.108681919" y="3603333.089530301"/>
    <node id="4671" x="13217731.985533265" y="3602486.132353149"/>
    <node id="4650" x="13216552.691560738" y="3603004.198969788"/>
    <node id="4708" x="13216877.300754363" y="3603495.294114174"/>
    <node id="4624" x="13216362.17359557" y="3602734.916506503"/>
    <node id="4690" x="13216130.281626595" y="3603387.483074908"/>
    <node id="4655" x="13215844.85232963" y="3603070.299552506"/>
    <node id="4742" x="13216021.136984691" y="3603620.029172577"/>
    <node id="4674" x="13215654.752480475" y="3603314.783016828"/>
    <node id="4732" x="13221195.073666124" y="3603491.103263758"/>
    <node id="4615" x="13222721.511904735" y="3602484.138153784"/>
    <node id="4663" x="13222189.415870689" y="3603050.163416195"/>
    <node id="4745" x="13221860.688635143" y="3603532.79421085"/>
    <node id="4642" x="13221642.114818713" y="3602778.738468344"/>
    <node id="4563" x="13221806.514559664" y="3602165.410206043"/>
    <node id="4689" x="13218640.796742907" y="3603342.791298734"/>
    <node id="4694" x="13218995.813300725" y="3603350.466963162"/>
    <node id="4697" x="13219316.406977674" y="3603365.506278693"/>
    <node id="4706" x="13219793.24735607" y="3603396.546364482"/>
    <node id="4724" x="13220591.531669693" y="3603448.43801123"/>
    <node id="4808" x="13218899.242751898" y="3603815.091532584"/>
    <node id="4662" x="13219135.479743253" y="3603080.85916869"/>
    <node id="4651" x="13219335.786365198" y="3602980.913058829"/>
    <node id="4819" x="13217822.609111695" y="3603874.234171222"/>
    <node id="4758" x="13222545.933683157" y="3603581.855146964"/>
    <node id="4664" x="13220522.47239719" y="3603089.674784014"/>
    <node id="4493" x="13217670.194866918" y="3601271.606741282"/>
    <node id="4562" x="13218582.988531336" y="3602105.42851755"/>
    <node id="5055" x="13215520.657801101" y="3605230.345048116"/>
    <node id="4972" x="13215556.497890407" y="3604697.796658428"/>
    <node id="4899" x="13215721.085204693" y="3604317.771640846"/>
    <node id="4794" x="13215931.483940348" y="3603826.523978879"/>
    <node id="4616" x="13217447.988361547" y="3602602.535684864"/>
    <node id="4589" x="13218023.00473846" y="3602363.446176891"/>
    <node id="4863" x="13220674.59493414" y="3604119.093342558"/>
    <node id="4881" x="13221170.879487993" y="3604148.868294036"/>
    <node id="4835" x="13219787.137140546" y="3603980.866085642"/>
    <node id="4854" x="13220248.053154461" y="3604071.1575409"/>
    <node id="4806" x="13219307.879570728" y="3603807.54395668"/>
    <node id="4950" x="13218616.381484266" y="3604561.065410793"/>
    <node id="5021" x="13218474.05406064" y="3604938.966736241"/>
    <node id="5082" x="13218462.65939756" y="3605462.857111375"/>
    <node id="4893" x="13218740.823094005" y="3604250.004218578"/>
    <node id="4961" x="13220081.112880101" y="3604598.946064834"/>
    <node id="4944" x="13219667.333880035" y="3604542.676072589"/>
    <node id="4973" x="13220728.5587271" y="3604638.797362435"/>
    <node id="5132" x="13219303.17821467" y="3606068.313234055"/>
    <node id="5061" x="13219473.611472024" y="3605237.408597391"/>
    <node id="5029" x="13219471.808541548" y="3605013.025487519"/>
    <node id="5126" x="13219003.983594747" y="3606052.092737679"/>
    <node id="9162" x="13218982.753965978" y="3605377.806980628"/>
    <node id="9176" x="13218647.972953882" y="3606668.856471665"/>
    <node id="5123" x="13218464.530010281" y="3606001.963781534"/>
    <node id="5122" x="13218060.523859635" y="3605978.626815759"/>
    <node id="5100" x="13217572.83317047" y="3605933.095465539"/>
    <node id="5012" x="13217925.559886364" y="3604880.890075068"/>
    <node id="4938" x="13217882.59323459" y="3604518.216628174"/>
    <node id="4927" x="13219285.354405716" y="3604461.738927461"/>
    <node id="5010" x="13219059.181698222" y="3604863.667661378"/>
    <node id="4907" x="13218698.664844366" y="3604355.385856453"/>
    <node id="4660" x="13218476.728005704" y="3603054.073036726"/>
    <node id="4855" x="13217520.710713219" y="3604131.973425131"/>
    <node id="4895" x="13214373.593381502" y="3604320.230084463"/>
    <node id="9159" x="13216346.820411399" y="3606515.503153233"/>
    <node id="4904" x="13220693.342138276" y="3604278.07418669"/>
    <node id="4917" x="13221802.772332337" y="3604235.138955195"/>
    <node id="4918" x="13222403.334194686" y="3604332.829712628"/>
    <node id="4942" x="13223067.644387936" y="3604441.187696983"/>
    <node id="4991" x="13221208.388145145" y="3604714.855186499"/>
    <node id="5005" x="13221730.253138741" y="3604785.233814322"/>
    <node id="5017" x="13222338.127912404" y="3604865.767519673"/>
    <node id="4920" x="13217149.353102528" y="3604442.880278939"/>
    <node id="4779" x="13223154.113026926" y="3603622.51511464"/>
    <node id="4929" x="13225266.83462207" y="3604348.691184076"/>
    <node id="5217" x="13218220.872016408" y="3607982.140430479"/>
    <node id="5193" x="13218178.250677686" y="3607204.75235877"/>
    <node id="5190" x="13218167.128969993" y="3607094.358758158"/>
    <node id="9174" x="13218113.093375968" y="3606528.137341612"/>
    <node id="4832" x="13222486.623215057" y="3603915.424571175"/>
    <node id="5026" x="13222947.000776606" y="3604950.614522598"/>
    <node id="5052" x="13223436.39509926" y="3605099.412689429"/>
    <node id="4852" x="13223115.876674278" y="3604017.239352706"/>
    <node id="4879" x="13217851.030596722" y="3604191.853207069"/>
    <node id="9155" x="13217337.312297411" y="3606989.618425926"/>
    <node id="5120" x="13217085.102406302" y="3605809.896985173"/>
    <node id="4947" x="13225591.361327952" y="3604468.989963469"/>
    <node id="9157" x="13216662.066856615" y="3606674.002059816"/>
    <node id="4605" x="13217731.984976675" y="3602486.131836588"/>
    <node id="9014" x="13224430.51154789" y="3600292.499155378"/>
    <node id="4526" x="13221801.846154174" y="3601557.845887902"/>
    <node id="4415" x="13221888.182879576" y="3600205.774316027"/>
    <node id="5140" x="13225919.021454858" y="3606394.915908517"/>
    <node id="5448" x="13224128.395459251" y="3613204.208302116"/>
    <node id="4565" x="13216764.143378776" y="3602260.987594432"/>
    <node id="4518" x="13216414.017308822" y="3601693.4798776"/>
    <node id="4608" x="13216231.077084042" y="3602548.186183571"/>
    <node id="4639" x="13215663.417033048" y="3602852.887187982"/>
    <node id="4649" x="13215394.868557625" y="3603023.998085974"/>
    <node id="4666" x="13215227.190123707" y="3603203.422492424"/>
    <node id="4521" x="13217696.008743638" y="3601720.059460524"/>
    <node id="4539" x="13217246.719382606" y="3601983.789580144"/>
    <node id="4448" x="13216405.171862083" y="3600655.862275908"/>
    <node id="4439" x="13216205.277678858" y="3600393.842441266"/>
    <node id="4496" x="13216884.578377388" y="3601305.175017995"/>
    <node id="4438" x="13215711.357773636" y="3600556.426258547"/>
    <node id="4464" x="13214685.218158407" y="3600906.050351264"/>
    <node id="4487" x="13214266.702514008" y="3601215.741254828"/>
    <node id="4501" x="13214025.174284635" y="3601466.871557528"/>
    <node id="4474" x="13215963.924777674" y="3600963.792290531"/>
    <node id="4502" x="13215238.527902534" y="3601461.284081755"/>
    <node id="4530" x="13214595.681331603" y="3601947.120186076"/>
    <node id="4609" x="13214126.883786414" y="3602587.118662658"/>
    <node id="4556" x="13215890.700152468" y="3602125.74156579"/>
    <node id="4534" x="13215551.726514384" y="3601779.739668029"/>
    <node id="4520" x="13214814.649664307" y="3601763.281445714"/>
    <node id="4607" x="13215373.955521481" y="3602550.775479518"/>
    <node id="4713" x="13215508.847471045" y="3603500.41266472"/>
    <node id="4573" x="13212901.938358627" y="3602360.763165038"/>
    <node id="4645" x="13214989.469132233" y="3602972.427361866"/>
    <node id="9171" x="13218151.01747746" y="3599874.483325582"/>
    <node id="4525" x="13213504.997451108" y="3601855.820897622"/>
    <node id="9015" x="13209542.279502373" y="3609664.273307034"/>
    <node id="4423" x="13216782.325636474" y="3600398.351929368"/>
    <node id="4393" x="13216283.23382771" y="3599888.791326321"/>
    <node id="4471" x="13217342.455591846" y="3600928.387375439"/>
    <node id="9011" x="13213919.397613915" y="3603066.519923985"/>
    <node id="4668" x="13214276.577554716" y="3603196.693451713"/>
    <node id="4440" x="13219307.115251102" y="3600522.17079157"/>
    <node id="4582" x="13216168.249507543" y="3601293.65437388"/>
    <node id="4669" x="13212816.556865782" y="3603169.650631233"/>
    <node id="9013" x="13213058.127619205" y="3602754.18350025"/>
    <node id="4718" x="13212606.39301426" y="3603572.011379055"/>
    <node id="4579" x="13223050.88557256" y="3602171.564531768"/>
    <node id="9001" x="13222351.872307288" y="3601773.742566167"/>
    <node id="4802" x="13214549.03957817" y="3603868.877348255"/>
    <node id="5199" x="13211800.821504131" y="3607458.206199916"/>
    <node id="5174" x="13211506.186753185" y="3606675.931704378"/>
    <node id="5184" x="13211217.36488342" y="3607024.23851061"/>
    <node id="5176" x="13210789.771579832" y="3606772.680703878"/>
    <node id="5073" x="13233484.794875558" y="3605157.134785673"/>
    <node id="9167" x="13228678.928632025" y="3604768.585158949"/>
    <node id="4621" x="13228840.68331056" y="3602484.579946017"/>
    <node id="4943" x="13226978.65432188" y="3604120.493421079"/>
    <node id="4986" x="13226499.532005236" y="3604612.937073852"/>
    <node id="5247" x="13218486.548448969" y="3608576.484700537"/>
    <node id="5429" x="13216216.00943437" y="3612573.564530218"/>
    <node id="5105" x="13214008.91696355" y="3605785.539894753"/>
    <node id="5084" x="13212469.169255316" y="3605597.197232758"/>
    <node id="5244" x="13210437.795602595" y="3608667.032497938"/>
    <node id="5298" x="13209631.77736734" y="3610431.586989538"/>
    <node id="5056" x="13225008.854262503" y="3605085.030646251"/>
    <node id="5066" x="13225370.46460771" y="3605221.501796051"/>
    <node id="5076" x="13225971.099161679" y="3605338.644468847"/>
    <node id="5101" x="13227420.492624102" y="3605527.745138766"/>
    <node id="5154" x="13231721.225082181" y="3606140.954364943"/>
    <node id="5124" x="13234547.584540702" y="3605738.300528651"/>
    <node id="5135" x="13232368.291663675" y="3605888.939247468"/>
    <node id="9010" x="13213467.103183236" y="3602901.68503751"/>
    <node id="9012" x="13213557.82467206" y="3602577.336909214"/>
    <node id="4628" x="13233638.186120749" y="3602484.459198943"/>
    <node id="5303" x="13236772.896227296" y="3610273.246051428"/>
    <node id="5369" x="13231974.173689453" y="3612087.814349743"/>
    <node id="5156" x="13231698.392007465" y="3606149.908343964"/>
    <node id="5281" x="13222661.70973844" y="3609567.392462785"/>
    <node id="5351" x="13222779.88851362" y="3611915.275202764"/>
    <node id="5236" x="13209659.577851692" y="3608499.979809076"/>
    <node id="4891" x="13226001.697550114" y="3602070.076342158"/>
    <node id="5020" x="13227514.6939602" y="3604801.418399866"/>
    <node id="5045" x="13228233.056445416" y="3604936.47419717"/>
    <node id="5113" x="13227285.55781653" y="3606557.580993711"/>
    <node id="9009" x="13213690.3388373" y="3603518.19742312"/>
    <node id="9008" x="13212931.629715845" y="3604187.397728807"/>
    <node id="9007" x="13213490.527030488" y="3603929.243406949"/>
    <node id="5300" x="13213868.23606651" y="3610554.643313023"/>
    <node id="5210" x="13212032.65814732" y="3607490.20199954"/>
    <node id="5339" x="13218033.840689015" y="3611214.086688682"/>
    <node id="9172" x="13226260.219701646" y="3610013.974384608"/>
    <node id="9006" x="13213112.3012494" y="3603776.42120117"/>
    <node id="9003" x="13212449.54741395" y="3603975.342039176"/>
    <node id="9004" x="13212931.62971585" y="3604187.397470492"/>
    <node id="9005" x="13213272.5668071" y="3604345.055691253"/>
    <node id="9002" x="13211421.865467185" y="3603415.965120466"/>
    <node id="5125" x="13228328.514689883" y="3606689.219996707"/>
    <node id="5189" x="13227234.924146144" y="3606921.148512354"/>
    <node id="9016" x="13232843.797989298" y="3608811.39565708"/>
    <node id="9017" x="13214557.187163014" y="3613130.651107875"/>
    <node id="9018" x="13214537.98722252" y="3613793.940829711"/>
    <node id="9019" x="13214363.957009776" y="3614246.879410081"/>
    <node id="9040" x="13223475.217437712" y="3598737.441022044"/>
    <node id="9041" x="13224093.333938468" y="3598054.546965975"/>
    <node id="9042" x="13222573.980072258" y="3599698.382034339"/>
    <node id="9043" x="13223067.717190888" y="3599172.417283426"/>
    <node id="9044" x="13224328.81161957" y="3597378.881051366"/>
    <node id="9045" x="13222508.5546019" y="3599045.564172798"/>
    <node id="9046" x="13206655.238230955" y="3601906.970838199"/>
    <node id="9047" x="13208097.452031503" y="3602221.212879649"/>
    <node id="9048" x="13210462.385966787" y="3602541.660901973"/>
    <node id="9049" x="13211524.141919136" y="3602476.077546941"/>
    <node id="9050" x="13211997.727204299" y="3602403.179771217"/>
    <node id="9051" x="13213933.445243107" y="3597789.667172486"/>
    <node id="9052" x="13215456.687610447" y="3598964.67502671"/>
    <node id="9053" x="13209570.89562464" y="3599853.126518776"/>
    <node id="9054" x="13219511.874541359" y="3599826.696890938"/>
    <node id="9055" x="13206970.56404696" y="3615540.4160945"/>
    <node id="9056" x="13208865.773479657" y="3612131.592858676"/>
    <node id="9057" x="13208261.209904263" y="3614006.370867461"/>
    <node id="9058" x="13213137.899500277" y="3612636.763345076"/>
    <node id="9059" x="13213155.908656178" y="3612128.752220226"/>
    <node id="9060" x="13213924.226987394" y="3612579.65947949"/>
    <node id="9061" x="13214565.133593543" y="3612529.396692485"/>
    <node id="9062" x="13208338.313345822" y="3604454.519282145"/>
    <node id="9063" x="13208435.014027122" y="3603806.740352834"/>
    <node id="9064" x="13207782.305551188" y="3607475.497256706"/>
    <node id="9065" x="13207991.56103568" y="3606761.553480938"/>
    <node id="9066" x="13207369.092054153" y="3608590.685703808"/>
    <node id="9067" x="13215389.164546907" y="3613100.664757063"/>
    <node id="9068" x="13214997.658239255" y="3613791.703711013"/>
    <node id="9021" x="13214765.118279519" y="3614388.829650361"/>
    <node id="9029" x="13214577.053239344" y="3614810.230283444"/>
    <node id="9069" x="13207547.88707504" y="3615853.145537805"/>
    <node id="9032" x="13215948.533188283" y="3613146.628580618"/>
    <node id="9035" x="13216519.416717779" y="3613214.521537317"/>
    <node id="9070" x="13217637.097133271" y="3613436.579536944"/>
    <node id="9071" x="13213114.556359649" y="3613805.55402495"/>
    <node id="9020" x="13213995.735288687" y="3613782.514685926"/>
    <node id="9031" x="13215693.20579482" y="3613719.217124853"/>
    <node id="9034" x="13216339.413880408" y="3613826.01735939"/>
    <node id="9072" x="13218251.896424534" y="3614363.332102499"/>
    <node id="9073" x="13220446.262962475" y="3615355.45765101"/>
    <node id="9101" x="13209239.969940461" y="3603323.946602154"/>
    <node id="9104" x="13209383.443286933" y="3602446.329011452"/>
    <node id="9027" x="13213937.247582948" y="3613126.403049949"/>
    <node id="9026" x="13213127.48522795" y="3613226.503203576"/>
    <node id="9074" x="13204388.68645788" y="3608077.5564826"/>
    <node id="9022" x="13215494.78214207" y="3614447.389141614"/>
    <node id="9023" x="13216123.012129882" y="3614494.757759332"/>
    <node id="9024" x="13218058.08073078" y="3614843.472676739"/>
    <node id="9025" x="13212270.989392243" y="3613337.842344836"/>
    <node id="9028" x="13214159.25727546" y="3614563.426856318"/>
    <node id="9030" x="13215428.319174044" y="3615033.358001187"/>
    <node id="9033" x="13216068.79998315" y="3615073.807795531"/>
    <node id="9036" x="13216761.292263974" y="3612685.971125603"/>
    <node id="9037" x="13227297.993205532" y="3598215.054168279"/>
    <node id="9038" x="13228575.100497687" y="3597580.694414439"/>
    <node id="9039" x="13225767.873186098" y="3599256.568791605"/>
    <node id="9075" x="13235545.474386109" y="3605056.41902944"/>
    <node id="9076" x="13234564.092553275" y="3601907.334999336"/>
    <node id="9077" x="13216150.65398397" y="3597068.91807483"/>
    <node id="9078" x="13218589.59857139" y="3597107.977564288"/>
    <node id="9079" x="13221763.069456719" y="3597146.889763414"/>
    <node id="9080" x="13226538.930867342" y="3599183.003228787"/>
    <node id="9081" x="13229640.693521561" y="3596702.457559141"/>
    <node id="9082" x="13232286.650951011" y="3595983.335027887"/>
    <node id="9083" x="13217879.286489116" y="3615617.105808836"/>
    <node id="9084" x="13218745.445301894" y="3615131.849081142"/>
    <node id="9085" x="13216585.846512591" y="3615105.798622115"/>
    <node id="9086" x="13214151.33745029" y="3615556.083480788"/>
    <node id="9087" x="13214086.706689762" y="3615784.951785417"/>
    <node id="9088" x="13212006.77792419" y="3615582.93462752"/>
    <node id="9089" x="13211994.063679863" y="3616156.960458686"/>
    <node id="9090" x="13211010.496534094" y="3615332.076030257"/>
    <node id="9091" x="13210219.10022529" y="3614934.060665456"/>
    <node id="9092" x="13213258.180989308" y="3597240.18572642"/>
    <node id="9093" x="13224222.794721402" y="3598113.046403428"/>
    <node id="9094" x="13226625.616801983" y="3599223.183142222"/>
    <node id="9095" x="13226442.849345041" y="3599137.166153978"/>
    <node id="9096" x="13211313.978624204" y="3604392.933023917"/>
    <node id="9097" x="13211467.563008705" y="3602996.010423118"/>
    <node id="9098" x="13210694.163276697" y="3603454.553075127"/>
    <node id="9099" x="13210307.43791852" y="3603453.016430622"/>
    <node id="9100" x="13209874.358456472" y="3603413.066066148"/>
    <node id="9102" x="13208520.539567385" y="3603221.358568816"/>
    <node id="9103" x="13208658.047636302" y="3602317.252765366"/>
    <node id="9105" x="13209994.349290313" y="3602975.46462751"/>
    <node id="9106" x="13210070.211742176" y="3602526.277404233"/>
    <node id="9107" x="13210384.911942653" y="3602997.330172899"/>
    <node id="9108" x="13210774.694134044" y="3603010.061975157"/>
    <node id="9109" x="13210835.07961446" y="3602676.773736036"/>
    <node id="9110" x="13209751.194571855" y="3604020.632965189"/>
    <node id="9111" x="13209654.778200537" y="3604646.363018081"/>
    <node id="9112" x="13211141.021976642" y="3604894.082381589"/>
    <node id="9113" x="13209024.627728855" y="3604556.005185225"/>
    <node id="9114" x="13208167.431470916" y="3605620.269566578"/>
    <node id="9115" x="13208259.894441843" y="3604983.138250274"/>
    <node id="9116" x="13209133.493515434" y="3603918.294038678"/>
    <node id="9117" x="13207784.749125332" y="3604372.709720287"/>
    <node id="9118" x="13207119.369597046" y="3604274.363285342"/>
    <node id="9119" x="13207880.10606907" y="3603726.095966733"/>
    <node id="9120" x="13207261.34547373" y="3603632.671732718"/>
    <node id="9121" x="13207960.62969065" y="3603136.060058179"/>
    <node id="9122" x="13209572.161995165" y="3605181.02509548"/>
    <node id="9123" x="13209476.805051427" y="3605808.044079017"/>
    <node id="9124" x="13209400.519474188" y="3606302.305391405"/>
    <node id="9125" x="13209294.567363964" y="3606956.433077903"/>
    <node id="9126" x="13210173.970190518" y="3605913.779926254"/>
    <node id="9127" x="13210140.065501899" y="3605276.92006242"/>
    <node id="9128" x="13208851.687333943" y="3605719.521892156"/>
    <node id="9129" x="13208944.925199838" y="3605080.213299149"/>
    <node id="9130" x="13207607.809021104" y="3605530.184708182"/>
    <node id="9131" x="13207701.046887012" y="3604900.721036056"/>
    <node id="9132" x="13206938.191448487" y="3605426.911105614"/>
    <node id="9133" x="13207042.024480883" y="3604804.82915085"/>
    <node id="9134" x="13207538.807634735" y="3606019.977727212"/>
    <node id="9135" x="13214340.638693409" y="3599374.260616893"/>
    <node id="9136" x="13220881.197675167" y="3599712.962642731"/>
    <node id="9137" x="13220704.38992982" y="3600267.194485673"/>
    <node id="9138" x="13220973.508472351" y="3599411.893712231"/>
    <node id="9139" x="13222782.809203101" y="3598814.17104804"/>
    <node id="9140" x="13222991.815554561" y="3598398.016586688"/>
    <node id="9141" x="13213902.800211806" y="3612032.176980864"/>
    <node id="9142" x="13216994.784227999" y="3612189.636944188"/>
    <node id="9143" x="13215666.541548518" y="3612506.520806195"/>
    <node id="9144" x="13217771.12657943" y="3613049.672257617"/>
    <node id="9145" x="13217417.323738027" y="3612346.140325469"/>
    <node id="9146" x="13217128.868888611" y="3611887.799109509"/>
    <node id="9147" x="13215334.398585705" y="3597282.696756421"/>
    <node id="9148" x="13208848.561927913" y="3601203.880737936"/>
    <node id="9149" x="13208093.539930638" y="3606099.905453103"/>
    <node id="9150" x="13217514.927665679" y="3599686.641255117"/>
    <node id="9151" x="13217261.370808711" y="3599175.444051557"/>
    <node id="9152" x="13217659.48604322" y="3599099.87228929"/>
    <node id="9153" x="13217153.066517653" y="3598971.376692928"/>
    <node id="9154" x="13217924.015551073" y="3599672.048928948"/>
    <node id="9156" x="13217460.812366886" y="3606448.366483918"/>
    <node id="9158" x="13216896.58140148" y="3606194.968218517"/>
    <node id="9160" x="13216595.581624696" y="3606021.249232453"/>
    <node id="9161" x="13217277.179512236" y="3604667.114927493"/>
    <node id="9163" x="13219012.22969735" y="3605021.570468788"/>
    <node id="9164" x="13220311.074569104" y="3604987.292024594"/>
    <node id="9165" x="13220746.802767126" y="3605448.324929341"/>
    <node id="9166" x="13221718.927271113" y="3605138.536846114"/>
    <node id="4930" x="13226277.180116618" y="3604322.988310514"/>
    <node id="9168" x="13224185.62180384" y="3602698.314338648"/>
    <node id="9169" x="13222984.612515591" y="3601385.783291292"/>
    <node id="9170" x="13220024.385580791" y="3600297.153864052"/>
    <node id="9173" x="13216437.058217026" y="3603996.716251058"/>
    <node id="9175" x="13218410.110364024" y="3606560.654934721"/>
</nodes>
