<routes>
    <vehicle id="veh_332353" depart="0.0" departLane="random">
        <route edges="15217_sa 21218_op 21219_op 8009_sa"/>
    </vehicle>
    <vehicle id="veh_242602" depart="0.005063291139240506" departLane="random">
        <route edges="1018_op 1007_op 1009_op 1014_op 1042_op 1042_sa 1014_sa 1009_sa 1007_sa 1007_op 1009_op 1011_op 1013_op 1053_op 1052_op 1217_op 1217_sa 1217_op 21211_sa"/>
    </vehicle>
    <vehicle id="veh_706941" depart="0.007594936708860759" departLane="random">
        <route edges="21247_sa 21137_op 21137_sa"/>
    </vehicle>
    <vehicle id="veh_1690185" depart="0.012658227848101266" departLane="random">
        <route edges="21247_sa"/>
    </vehicle>
    <vehicle id="veh_199246" depart="0.015189873417721518" departLane="random">
        <route edges="1125_sa 1212_sa 1126_op 1209_sa 1039_op 1038_op 1037_op 1127_sa 1059_op 1018_op"/>
    </vehicle>
    <vehicle id="veh_856053" depart="0.020253164556962026" departLane="random">
        <route edges="30097_op 30096_op 30095_op 30094_op 30093_op 21164_sa 21163_op 21162_op 21161_op 21159_op 21160_op"/>
    </vehicle>
    <vehicle id="veh_1207586" depart="0.02278481012658228" departLane="random">
        <route edges="1216_sa 1042_sa 8005_sa 8004_sa 1036_sa 8002_sa 8003_sa 1228_sa 1229_sa 21184_sa 21185_sa"/>
    </vehicle>
    <vehicle id="veh_1208236" depart="0.02531645569620253" departLane="random">
        <route edges="21230_op 21231_op 21242_op 21243_op 21245_op 30062_sa 30024_sa"/>
    </vehicle>
    <vehicle id="veh_850793" depart="0.027848101265822784" departLane="random">
        <route edges="1064_sa"/>
    </vehicle>
    <vehicle id="veh_1683483" depart="0.030379746835443037" departLane="random">
        <route edges="1033_op"/>
    </vehicle>
    <vehicle id="veh_614849" depart="0.035443037974683546" departLane="random">
        <route edges="30096_sa 30097_sa 30098_sa"/>
    </vehicle>
    <vehicle id="veh_1596001" depart="0.0379746835443038" departLane="random">
        <route edges="1214_sa 21207_sa 21207_op 1215_sa 1217_sa 1216_sa 1130_sa 1131_sa 1048_sa 1048_op"/>
    </vehicle>
    <vehicle id="veh_704821" depart="0.04050632911392405" departLane="random">
        <route edges="1001_sa"/>
    </vehicle>
    <vehicle id="veh_531635" depart="0.043037974683544304" departLane="random">
        <route edges="30030_op 30030_sa"/>
    </vehicle>
    <vehicle id="veh_48098" depart="0.04556962025316456" departLane="random">
        <route edges="1056_sa 1025_sa 8008_sa 21203_sa 21204_sa 21230_op 21231_op 21215_sa 21216_sa"/>
    </vehicle>
    <vehicle id="veh_429729" depart="0.04810126582278481" departLane="random">
        <route edges="21146_op 21145_op 1073_op 8003_op 8002_op 1036_op 8004_op 8005_op 1034_op 1040_op 1041_op 1127_sa"/>
    </vehicle>
    <vehicle id="veh_203565" depart="0.05063291139240506" departLane="random">
        <route edges="1007_op 1004_sa 1023_sa 1227_sa 1226_sa 30192_op 1063_sa 1064_sa"/>
    </vehicle>
    <vehicle id="veh_203630" depart="0.05569620253164557" departLane="random">
        <route edges="21138_op"/>
    </vehicle>
    <vehicle id="veh_1057546" depart="0.06329113924050633" departLane="random">
        <route edges="21231_op"/>
    </vehicle>
    <vehicle id="veh_205109" depart="0.06835443037974684" departLane="random">
        <route edges="1053_sa 1013_sa 1013_op 1013_sa 1011_sa 1012_sa 1012_op"/>
    </vehicle>
    <vehicle id="veh_438943" depart="0.07341772151898734" departLane="random">
        <route edges="21263_op 8006_op 15809_op 1124_op 1049_op 1048_op 1131_op 1045_sa 1034_sa 1034_op 1040_op 1043_sa 1031_sa 1032_sa"/>
    </vehicle>
    <vehicle id="veh_210789" depart="0.0759493670886076" departLane="random">
        <route edges="1073_op 1228_sa 1229_sa 21184_sa 21185_sa 21186_sa 21227_op 21228_op 21228_sa 21227_sa 21186_op 21185_op 21184_op 1229_op 1228_op 30187_sa 30187_op"/>
    </vehicle>
    <vehicle id="veh_125545" depart="0.07848101265822785" departLane="random">
        <route edges="21138_op 21228_sa 21227_sa 21160_sa"/>
    </vehicle>
    <vehicle id="veh_1101603" depart="0.0810126582278481" departLane="random">
        <route edges="21242_sa 21214_op 15342_sa 1130_sa 1131_sa 1048_sa 1049_sa 1124_sa 15809_sa 8006_sa 21251_op 21251_sa"/>
    </vehicle>
    <vehicle id="veh_248216" depart="0.08354430379746836" departLane="random">
        <route edges="1125_sa 1212_sa 1213_sa 1124_op 1049_op 1049_sa 1124_sa 15809_sa 8006_sa 21263_sa 21257_op 21272_sa 21273_sa"/>
    </vehicle>
    <vehicle id="veh_209760" depart="0.08607594936708861" departLane="random">
        <route edges="21162_op 21161_op 21159_op 21158_op 1218_sa 1229_op 1228_op 8003_op 8002_op 1036_op 8004_op 8005_op 1034_op 1040_op 1043_sa 1031_sa 1032_sa"/>
    </vehicle>
    <vehicle id="veh_462511" depart="0.09113924050632911" departLane="random">
        <route edges="30024_op 30062_op 21245_sa 21243_sa 21242_sa 21231_sa 21230_sa 21229_sa 21198_op 21197_op 21219_sa 21218_sa"/>
    </vehicle>
    <vehicle id="veh_286308" depart="0.09873417721518987" departLane="random">
        <route edges="1044_op 1048_sa 1049_sa 1124_sa 15809_sa 8006_sa"/>
    </vehicle>
    <vehicle id="veh_100899" depart="0.10379746835443038" departLane="random">
        <route edges="21266_sa 21251_sa 8006_op 15809_op"/>
    </vehicle>
    <vehicle id="veh_327242" depart="0.10632911392405063" departLane="random">
        <route edges="30024_op 30062_op 21245_sa 15363_sa 1045_sa 1034_sa 1014_sa 1009_sa 1004_sa"/>
    </vehicle>
    <vehicle id="veh_516334" depart="0.10886075949367088" departLane="random">
        <route edges="1044_op 1131_op 15363_op 21245_op 30062_sa 30062_op 21245_sa 15363_sa 1131_sa 1131_op"/>
    </vehicle>
    <vehicle id="veh_1789955" depart="0.11392405063291139" departLane="random">
        <route edges="1124_op"/>
    </vehicle>
    <vehicle id="veh_515719" depart="0.11645569620253164" departLane="random">
        <route edges="30069_sa 30023_op 30169_op 30024_op 30062_op 21245_sa 15363_sa 1045_sa 1040_op 1043_sa"/>
    </vehicle>
    <vehicle id="veh_1048870" depart="0.12151898734177215" departLane="random">
        <route edges="1021_sa 1005_op 1007_op 1006_op"/>
    </vehicle>
    <vehicle id="veh_679375" depart="0.1240506329113924" departLane="random">
        <route edges="1018_op 1007_op 1007_sa 1018_sa"/>
    </vehicle>
    <vehicle id="veh_13970" depart="0.12658227848101267" departLane="random">
        <route edges="21138_op 21229_op 21230_op 21231_op 21214_op 15342_sa 1130_sa 1131_sa 1048_sa 1049_sa"/>
    </vehicle>
    <vehicle id="veh_1350082" depart="0.1291139240506329" departLane="random">
        <route edges="30195_op 30194_op 1098_op 1097_op 1127_op 1041_sa 1043_sa 1044_op 1048_sa 1049_sa 1124_sa"/>
    </vehicle>
    <vehicle id="veh_318025" depart="0.1341772151898734" departLane="random">
        <route edges="1063_sa"/>
    </vehicle>
    <vehicle id="veh_1354642" depart="0.14430379746835442" departLane="random">
        <route edges="21188_op 21232_op 21194_op"/>
    </vehicle>
    <vehicle id="veh_251598" depart="0.1468354430379747" departLane="random">
        <route edges="1032_op"/>
    </vehicle>
    <vehicle id="veh_312954" depart="0.1518987341772152" departLane="random">
        <route edges="1127_sa 1059_op 1018_op 1007_op 1006_op 1003_sa"/>
    </vehicle>
    <vehicle id="veh_12001" depart="0.15443037974683543" departLane="random">
        <route edges="21216_op 21215_op 21242_op 21242_sa 21231_sa 21230_sa"/>
    </vehicle>
    <vehicle id="veh_158413" depart="0.1569620253164557" departLane="random">
        <route edges="1028_op 1044_op 1131_op 1045_sa 1045_op 1130_op 15342_op 21214_sa 21231_sa 21230_sa"/>
    </vehicle>
    <vehicle id="veh_1029836" depart="0.1620253164556962" departLane="random">
        <route edges="1004_op 1009_op 1014_op 1042_op"/>
    </vehicle>
    <vehicle id="veh_94054" depart="0.1670886075949367" departLane="random">
        <route edges="21195_op 21232_sa 21188_sa"/>
    </vehicle>
    <vehicle id="veh_1027233" depart="0.16962025316455695" departLane="random">
        <route edges="1029_op 1049_op 21135_op"/>
    </vehicle>
    <vehicle id="veh_1365043" depart="0.17468354430379746" departLane="random">
        <route edges="1201_sa 1060_sa 1063_sa"/>
    </vehicle>
    <vehicle id="veh_1369534" depart="0.17974683544303796" departLane="random">
        <route edges="21246_sa 1044_sa 1043_op 1040_sa 1034_sa 8005_sa 8004_sa 1053_op 1054_sa 1026_sa 1025_sa 8008_sa"/>
    </vehicle>
    <vehicle id="veh_91755" depart="0.18227848101265823" departLane="random">
        <route edges="30097_op 30096_op 30095_op 30094_op 30093_op 21164_sa 21163_op 21162_op 21161_op 21159_op 21160_op 21186_op 21185_op 21184_op 1229_op 1228_op 8003_op 8002_op 1036_op 8004_op"/>
    </vehicle>
    <vehicle id="veh_652970" depart="0.1848101265822785" departLane="random">
        <route edges="30067_sa 30068_sa 30069_sa 30069_op"/>
    </vehicle>
    <vehicle id="veh_309931" depart="0.18734177215189873" departLane="random">
        <route edges="21263_op 8006_op 15809_op 1124_op 1049_op 1049_sa"/>
    </vehicle>
    <vehicle id="veh_308917" depart="0.19240506329113924" departLane="random">
        <route edges="30024_op 30062_op 21245_sa 15363_sa 1045_sa 1034_sa 1014_sa 1009_sa 1007_sa"/>
    </vehicle>
    <vehicle id="veh_998601" depart="0.1949367088607595" departLane="random">
        <route edges="1025_sa 8008_sa 21203_sa 21204_sa 21230_op 21209_sa 21237_op 21216_sa 30031_op 30030_op 30030_sa"/>
    </vehicle>
    <vehicle id="veh_1286463" depart="0.19746835443037974" departLane="random">
        <route edges="8009_sa 1220_op 1222_op 1221_op 1218_op 1219_op 1079_op"/>
    </vehicle>
    <vehicle id="veh_233445" depart="0.2" departLane="random">
        <route edges="1008_op 1011_sa 1014_op 1034_op 1040_op 1043_sa 1028_sa"/>
    </vehicle>
    <vehicle id="veh_1091572" depart="0.20506329113924052" departLane="random">
        <route edges="1228_op 30187_sa 30188_sa 1067_sa 1201_op"/>
    </vehicle>
    <vehicle id="veh_994915" depart="0.21265822784810126" departLane="random">
        <route edges="21163_op 21162_op 21161_op 21156_sa 21145_op 1204_op 1205_op 30184_op 30183_op 1081_sa 1066_sa 1076_sa 1067_sa 30193_sa 1227_op 1023_op 1002_op 1005_op 1018_sa"/>
    </vehicle>
    <vehicle id="veh_1272413" depart="0.22025316455696203" departLane="random">
        <route edges="1113_op 1039_op 1030_op 1032_op"/>
    </vehicle>
    <vehicle id="veh_1137553" depart="0.22278481012658227" departLane="random">
        <route edges="1100_sa 1122_op 1122_sa 1100_op"/>
    </vehicle>
    <vehicle id="veh_1400919" depart="0.22784810126582278" departLane="random">
        <route edges="1232_sa"/>
    </vehicle>
    <vehicle id="veh_82917" depart="0.23037974683544304" departLane="random">
        <route edges="21179_sa 21166_op 21165_op 21160_op 21227_op 21228_op 21229_op 21230_op 21209_sa 21237_op 21215_op 21242_op 21243_op 21245_op 30062_sa 30024_sa"/>
    </vehicle>
    <vehicle id="veh_367047" depart="0.23544303797468355" departLane="random">
        <route edges="1073_op 30187_sa 30188_sa 30188_op"/>
    </vehicle>
    <vehicle id="veh_178815" depart="0.2379746835443038" departLane="random">
        <route edges="21208_sa 21230_sa 21229_sa 21228_sa 21227_sa 21186_op 21185_op 21184_op 1229_op 1228_op 30187_sa 30188_sa 1223_sa 1224_sa 1224_op"/>
    </vehicle>
    <vehicle id="veh_6278" depart="0.24050632911392406" departLane="random">
        <route edges="1207_sa 1230_sa 1231_sa 1064_op 1065_op"/>
    </vehicle>
    <vehicle id="veh_80136" depart="0.2430379746835443" departLane="random">
        <route edges="1026_op 1054_op 1053_sa 1013_sa 1008_sa 1008_op 1016_op 8005_op 1042_op 15342_op 21214_sa 21231_sa 21231_op 21215_sa 21216_sa 30031_op 30030_op 30030_sa"/>
    </vehicle>
    <vehicle id="veh_1142354" depart="0.24556962025316456" departLane="random">
        <route edges="21209_op"/>
    </vehicle>
    <vehicle id="veh_317266" depart="0.25063291139240507" departLane="random">
        <route edges="21231_sa 21230_sa 21229_sa"/>
    </vehicle>
    <vehicle id="veh_740899" depart="0.25316455696202533" departLane="random">
        <route edges="30053_sa"/>
    </vehicle>
    <vehicle id="veh_1326314" depart="0.25569620253164554" departLane="random">
        <route edges="21217_op 21218_op 21219_op 8009_sa 1027_sa 30191_op 30191_sa 30198_sa 1228_op 30187_sa 30187_op"/>
    </vehicle>
    <vehicle id="veh_449108" depart="0.26329113924050634" departLane="random">
        <route edges="21232_sa 21187_op 21186_op 21185_op 21184_op 1229_op 1228_op 30187_sa 30186_op 30189_op 30183_op 1081_sa 1066_sa 1076_sa 1223_sa 1224_sa 1024_op 1003_op 1006_sa 1007_sa 1018_sa"/>
    </vehicle>
    <vehicle id="veh_229002" depart="0.26582278481012656" departLane="random">
        <route edges="30024_op 30062_op 21245_sa 30202_sa 21246_sa 1044_sa"/>
    </vehicle>
    <vehicle id="veh_325925" depart="0.2708860759493671" departLane="random">
        <route edges="21259_sa 21258_sa 21265_op 21251_sa 8006_op 15809_op 1124_op 1029_sa 1032_op 1031_op"/>
    </vehicle>
    <vehicle id="veh_181179" depart="0.2759493670886076" departLane="random">
        <route edges="1044_op 1131_op 1130_op 1216_op 1217_op 1215_op 1214_op 1047_op 1220_op 15207_sa 21218_sa 15217_op"/>
    </vehicle>
    <vehicle id="veh_1776061" depart="0.27848101265822783" departLane="random">
        <route edges="1049_sa"/>
    </vehicle>
    <vehicle id="veh_2003" depart="0.2810126582278481" departLane="random">
        <route edges="30191_op 1025_sa 1214_sa 21207_sa 21208_sa 21209_sa 21237_op 21216_sa"/>
    </vehicle>
    <vehicle id="veh_338571" depart="0.28354430379746837" departLane="random">
        <route edges="1099_op 1028_op 1028_sa"/>
    </vehicle>
    <vehicle id="veh_1446466" depart="0.28607594936708863" departLane="random">
        <route edges="1109_op 1109_sa"/>
    </vehicle>
    <vehicle id="veh_304188" depart="0.28860759493670884" departLane="random">
        <route edges="1009_sa"/>
    </vehicle>
    <vehicle id="veh_665949" depart="0.2911392405063291" departLane="random">
        <route edges="1034_op 1040_op 1041_op 1127_sa"/>
    </vehicle>
    <vehicle id="veh_1770167" depart="0.2936708860759494" departLane="random">
        <route edges="21185_op"/>
    </vehicle>
    <vehicle id="veh_181571" depart="0.29620253164556964" departLane="random">
        <route edges="21144_op 1206_sa 1207_sa 1210_sa"/>
    </vehicle>
    <vehicle id="veh_538846" depart="0.31139240506329113" departLane="random">
        <route edges="1058_sa 1125_op 1123_sa 1103_sa 1102_sa 1101_op 1098_sa 1107_sa 1109_sa 1108_op 1110_op 1232_sa 1233_sa 1233_op 1232_op"/>
    </vehicle>
    <vehicle id="veh_250453" depart="0.3139240506329114" departLane="random">
        <route edges="1073_op 1073_sa"/>
    </vehicle>
    <vehicle id="veh_155896" depart="0.31645569620253167" departLane="random">
        <route edges="30097_op 30120_op 30118_op 30116_sa"/>
    </vehicle>
    <vehicle id="veh_1757196" depart="0.3189873417721519" departLane="random">
        <route edges="21184_sa 21185_sa 21186_sa 21187_sa 21188_sa"/>
    </vehicle>
    <vehicle id="veh_1465702" depart="0.32151898734177214" departLane="random">
        <route edges="30024_op 30062_op 21245_sa 30202_sa 21246_sa 1131_op 1045_sa 1034_sa 1014_sa 1009_sa 1004_sa 1023_sa 1227_sa 1226_sa 1225_sa 1232_sa 1233_sa"/>
    </vehicle>
    <vehicle id="veh_323291" depart="0.3240506329113924" departLane="random">
        <route edges="21266_sa 21265_sa 21257_sa"/>
    </vehicle>
    <vehicle id="veh_937915" depart="0.3265822784810127" departLane="random">
        <route edges="21247_sa 21246_sa 1048_sa 1049_sa 1124_sa 15809_sa 8006_sa"/>
    </vehicle>
    <vehicle id="veh_1756679" depart="0.3291139240506329" departLane="random">
        <route edges="21216_op 21237_sa 21236_sa 21235_sa 21234_sa 21233_sa 21232_sa 21188_sa"/>
    </vehicle>
    <vehicle id="veh_1466214" depart="0.33164556962025316" departLane="random">
        <route edges="1220_sa 1027_sa 30198_sa 1228_op 1073_sa"/>
    </vehicle>
    <vehicle id="veh_26496" depart="0.3341772151898734" departLane="random">
        <route edges="1043_sa"/>
    </vehicle>
    <vehicle id="veh_433405" depart="0.34177215189873417" departLane="random">
        <route edges="1037_op 1041_sa 1040_sa 1045_op 15363_op 21243_sa"/>
    </vehicle>
    <vehicle id="veh_17647" depart="0.34430379746835443" departLane="random">
        <route edges="21156_op 21159_op 21160_op 21227_op 21228_op 21229_op 21204_op 21225_op 21207_op 1215_sa 1217_sa 1216_sa 1130_sa 1045_sa 1040_op 1041_op 1127_sa 1097_sa"/>
    </vehicle>
    <vehicle id="veh_71535" depart="0.3493670886075949" departLane="random">
        <route edges="21280_sa 21279_sa 21272_op 21257_sa 21263_op 8006_op 15809_op 1124_op 21136_op 21248_sa 21137_sa 21247_op"/>
    </vehicle>
    <vehicle id="veh_185317" depart="0.3518987341772152" departLane="random">
        <route edges="15207_sa 21192_sa 21222_sa 21222_op 21223_op 21198_sa 21138_sa 21199_sa 21235_op 21236_op 21237_op 21216_sa"/>
    </vehicle>
    <vehicle id="veh_735884" depart="0.35443037974683544" departLane="random">
        <route edges="1076_op 1076_sa 1223_sa"/>
    </vehicle>
    <vehicle id="veh_486302" depart="0.3569620253164557" departLane="random">
        <route edges="30193_op"/>
    </vehicle>
    <vehicle id="veh_1330092" depart="0.3594936708860759" departLane="random">
        <route edges="1233_op"/>
    </vehicle>
    <vehicle id="veh_225037" depart="0.3620253164556962" departLane="random">
        <route edges="21188_op 21187_op 21186_op 21185_op 21184_op"/>
    </vehicle>
    <vehicle id="veh_301216" depart="0.3670886075949367" departLane="random">
        <route edges="1124_op 21136_op 21248_sa 21137_sa 30202_op 21245_op 30062_sa 30024_sa"/>
    </vehicle>
    <vehicle id="veh_122851" depart="0.369620253164557" departLane="random">
        <route edges="1059_op 1061_op 1021_sa 1002_sa 1004_op 1006_op"/>
    </vehicle>
    <vehicle id="veh_707213" depart="0.3721518987341772" departLane="random">
        <route edges="1028_op 1044_op 1131_op 1045_sa 1045_op 1130_op 1216_op 1217_op 21211_sa"/>
    </vehicle>
    <vehicle id="veh_278976" depart="0.379746835443038" departLane="random">
        <route edges="21266_sa 21251_sa 8006_op 15809_op 1124_op 1049_op 1048_op 1131_op"/>
    </vehicle>
    <vehicle id="veh_1097163" depart="0.3822784810126582" departLane="random">
        <route edges="21245_op 30062_sa 30024_sa"/>
    </vehicle>
    <vehicle id="veh_376684" depart="0.3848101265822785" departLane="random">
        <route edges="21138_op 21229_op 21204_op 21203_op 8008_op 1025_op 1026_op 1054_op 1053_sa 1013_sa 1011_sa 1012_sa 1010_sa 1018_sa 1061_op 1021_sa 1005_op"/>
    </vehicle>
    <vehicle id="veh_484150" depart="0.38734177215189874" departLane="random">
        <route edges="30053_sa 30015_sa 30016_sa 21143_sa 21144_op 1206_sa 1207_sa 1210_sa 1211_sa 1205_sa 1204_sa 1079_sa 1219_sa 21158_sa 21160_op 21227_op 21228_op 21229_op 21230_op 21209_sa 21237_op 21215_op 21242_op 21243_op 30202_sa 
21137_op 21135_sa"/>
    </vehicle>
    <vehicle id="veh_325312" depart="0.389873417721519" departLane="random">
        <route edges="21230_op 21231_op 21214_op 15342_sa 15342_op 21214_sa 21231_sa 21230_sa"/>
    </vehicle>
    <vehicle id="veh_224474" depart="0.3924050632911392" departLane="random">
        <route edges="21135_sa 1048_op 1044_sa 1028_sa 1028_op"/>
    </vehicle>
    <vehicle id="veh_1740743" depart="0.39746835443037976" departLane="random">
        <route edges="1127_op"/>
    </vehicle>
    <vehicle id="veh_692727" depart="0.4" departLane="random">
        <route edges="21247_sa 21137_op 21135_sa 21135_op"/>
    </vehicle>
    <vehicle id="veh_28509" depart="0.40253164556962023" departLane="random">
        <route edges="21187_op 21186_op 21221_op 21222_op 21192_op"/>
    </vehicle>
    <vehicle id="veh_783211" depart="0.40759493670886077" departLane="random">
        <route edges="1008_op 1011_sa 1014_op 1034_op 1040_op"/>
    </vehicle>
    <vehicle id="veh_585475" depart="0.41012658227848103" departLane="random">
        <route edges="1025_op 30191_sa 30198_sa 1228_op 1228_sa"/>
    </vehicle>
    <vehicle id="veh_103834" depart="0.41265822784810124" departLane="random">
        <route edges="21275_sa 21276_sa 21252_sa 21252_op"/>
    </vehicle>
    <vehicle id="veh_1072308" depart="0.4151898734177215" departLane="random">
        <route edges="1130_op"/>
    </vehicle>
    <vehicle id="veh_693117" depart="0.4177215189873418" departLane="random">
        <route edges="21252_sa 21251_sa 8006_op 15809_op 1124_op"/>
    </vehicle>
    <vehicle id="veh_254236" depart="0.42278481012658226" departLane="random">
        <route edges="30024_op 30062_op 21245_sa 30202_sa 21137_op 21248_op 21136_sa 1124_sa 15809_sa 8006_sa"/>
    </vehicle>
    <vehicle id="veh_65794" depart="0.4253164556962025" departLane="random">
        <route edges="21188_op 21187_op 21186_op 21185_op 21217_op 21218_op 15207_op"/>
    </vehicle>
    <vehicle id="veh_1520153" depart="0.43037974683544306" departLane="random">
        <route edges="1022_op 1021_op 1061_sa 1059_sa"/>
    </vehicle>
    <vehicle id="veh_657641" depart="0.4379746835443038" departLane="random">
        <route edges="21227_op 21228_op 21198_op 21197_op 21220_op"/>
    </vehicle>
    <vehicle id="veh_123190" depart="0.44050632911392407" departLane="random">
        <route edges="1060_sa 30192_sa 1226_op 1227_op 1023_op 1004_op 1007_sa 1010_op"/>
    </vehicle>
    <vehicle id="veh_248859" depart="0.4430379746835443" departLane="random">
        <route edges="1037_op 1015_op 1012_op 1014_op 1042_op 1042_sa 8005_sa 8004_sa 1036_sa 8002_sa 8003_sa 1228_sa 1229_sa 21184_sa 21185_sa 21186_sa 21187_sa 21188_sa"/>
    </vehicle>
    <vehicle id="veh_64112" depart="0.4481012658227848" departLane="random">
        <route edges="30097_op 30096_op 30101_sa 30112_sa 30104_sa 30028_sa 30092_sa 30029_sa 21188_op 21187_op 21186_op 21185_op 21184_op 1229_op 1228_op 30187_sa 30188_sa 1076_op 1231_op 1230_op 1207_op 1206_op 21144_sa"/>
    </vehicle>
    <vehicle id="veh_190298" depart="0.4582278481012658" departLane="random">
        <route edges="1037_sa 1038_sa 1030_op 1032_op"/>
    </vehicle>
    <vehicle id="veh_63494" depart="0.4607594936708861" departLane="random">
        <route edges="1130_op"/>
    </vehicle>
    <vehicle id="veh_1131998" depart="0.46329113924050636" departLane="random">
        <route edges="1029_op 1049_op 1048_op 1131_op 1045_sa 1045_op 1130_op 1216_op 1217_op 21211_sa"/>
    </vehicle>
    <vehicle id="veh_591200" depart="0.46835443037974683" departLane="random">
        <route edges="1109_op 1061_sa 1018_op 1010_op 1012_op 1014_op 1042_op 15342_op 21214_sa 21231_sa 21209_sa"/>
    </vehicle>
    <vehicle id="veh_141367" depart="0.4708860759493671" departLane="random">
        <route edges="1041_op 1041_sa"/>
    </vehicle>
    <vehicle id="veh_295566" depart="0.47848101265822784" departLane="random">
        <route edges="21216_op 21215_op 21231_sa 21208_op"/>
    </vehicle>
    <vehicle id="veh_252098" depart="0.4835443037974684" departLane="random">
        <route edges="1206_sa 1206_op"/>
    </vehicle>
    <vehicle id="veh_192696" depart="0.4860759493670886" departLane="random">
        <route edges="21208_sa 21231_op 21215_sa 21216_sa 30031_op 30030_op 30030_sa"/>
    </vehicle>
    <vehicle id="veh_541296" depart="0.48860759493670886" departLane="random">
        <route edges="1058_op"/>
    </vehicle>
    <vehicle id="veh_384466" depart="0.4936708860759494" departLane="random">
        <route edges="1018_op 1007_op 1006_op 1008_op"/>
    </vehicle>
    <vehicle id="veh_430267" depart="0.4962025316455696" departLane="random">
        <route edges="21177_op 21178_op 21179_op 21163_sa 21164_op 30090_sa"/>
    </vehicle>
    <vehicle id="veh_1548515" depart="0.49873417721518987" departLane="random">
        <route edges="1028_op 1044_op 21246_op 21246_sa 1131_op 1045_sa 1034_sa 1034_op 1040_op 1043_sa 1031_sa 1033_sa 1048_op 1131_op"/>
    </vehicle>
    <vehicle id="veh_240065" depart="0.5012658227848101" departLane="random">
        <route edges="1067_sa 30193_sa 1226_sa 1225_sa 1110_sa 1108_sa 1109_op 1107_op 1098_op 1097_op 1127_op 1041_sa 1043_sa 1044_op 1048_sa"/>
    </vehicle>
    <vehicle id="veh_1549370" depart="0.5063291139240507" departLane="random">
        <route edges="21195_op 21194_op 21193_op 21192_op 15207_op 1222_op 1221_op 1229_op 1228_op 30187_sa 30188_sa 1067_sa 1060_sa 30192_sa 1225_sa 1110_sa 1108_sa 1069_sa 1022_op 1021_op"/>
    </vehicle>
    <vehicle id="veh_294198" depart="0.5088607594936709" departLane="random">
        <route edges="1125_sa"/>
    </vehicle>
    <vehicle id="veh_804994" depart="0.5113924050632911" departLane="random">
        <route edges="1037_sa"/>
    </vehicle>
    <vehicle id="veh_315289" depart="0.5139240506329114" departLane="random">
        <route edges="21188_op 21187_op 21186_op 21185_op 21184_op"/>
    </vehicle>
    <vehicle id="veh_1702010" depart="0.5164556962025316" departLane="random">
        <route edges="1048_sa"/>
    </vehicle>
    <vehicle id="veh_1552645" depart="0.5189873417721519" departLane="random">
        <route edges="21252_sa 21251_sa 8006_op 15809_op 1124_op 1049_op 1049_sa"/>
    </vehicle>
    <vehicle id="veh_877486" depart="0.5215189873417722" departLane="random">
        <route edges="21230_op 21209_sa 21237_op 21215_op 21214_op 15342_sa 1130_sa 1130_op 15342_op 21214_sa 21231_sa 21231_op 21231_sa 21230_sa 21229_sa"/>
    </vehicle>
    <vehicle id="veh_56586" depart="0.529113924050633" departLane="random">
        <route edges="1045_sa 1034_sa 1014_sa 1009_sa 1006_op"/>
    </vehicle>
    <vehicle id="veh_1557065" depart="0.5316455696202531" departLane="random">
        <route edges="21145_op 1079_sa 1219_sa 1218_sa 1229_op 1229_sa 1218_op 1219_op 1079_op 1073_op 8003_op 8002_op 1036_op 1013_sa 1011_sa 1012_sa 1010_sa 1005_sa"/>
    </vehicle>
    <vehicle id="veh_455024" depart="0.5341772151898734" departLane="random">
        <route edges="1029_op 1049_op 1048_op 1048_sa 21135_op 21135_sa 1033_op 1031_op 1028_sa 1037_op 1015_op 1010_sa 1005_sa 1002_sa 1004_op"/>
    </vehicle>
    <vehicle id="veh_473616" depart="0.5392405063291139" departLane="random">
        <route edges="1011_sa 1009_sa 1006_op 1003_sa"/>
    </vehicle>
    <vehicle id="veh_606334" depart="0.5417721518987342" departLane="random">
        <route edges="1004_sa 1023_sa 1227_sa 1226_sa 30192_op 1060_op"/>
    </vehicle>
    <vehicle id="veh_810794" depart="0.5443037974683544" departLane="random">
        <route edges="21135_sa 1048_op 1131_op 1045_sa 1034_sa 8005_sa 1016_sa 1008_sa 1003_sa 1202_sa 1203_sa 1201_sa 30193_sa"/>
    </vehicle>
    <vehicle id="veh_1172503" depart="0.5468354430379747" departLane="random">
        <route edges="21236_sa 21205_op 21139_op 21229_sa 21228_sa 21228_op 21228_sa 21228_op 21229_op 21230_op 21208_op 21226_op 21211_op 1217_sa 1052_sa 1053_sa 1013_sa 1011_sa 1009_sa 1007_sa 1007_op 1006_op 1003_sa 1024_sa 8001_sa"/>
    </vehicle>
    <vehicle id="veh_425158" depart="0.549367088607595" departLane="random">
        <route edges="21258_op 21258_sa"/>
    </vehicle>
    <vehicle id="veh_527997" depart="0.5518987341772152" departLane="random">
        <route edges="1004_op 1007_sa 1018_sa 1059_sa 1106_sa"/>
    </vehicle>
    <vehicle id="veh_548486" depart="0.5569620253164557" departLane="random">
        <route edges="21248_sa 21137_sa 30202_op 21243_sa 21242_sa 21214_op 21214_sa 21231_sa 21230_sa"/>
    </vehicle>
    <vehicle id="veh_1223467" depart="0.5594936708860759" departLane="random">
        <route edges="21273_op 21272_op 21257_sa 21256_sa 21255_sa 15885_sa 1125_sa 1058_op 1122_op 1103_sa 30197_sa 30196_op 30195_op 30194_op"/>
    </vehicle>
    <vehicle id="veh_1198129" depart="0.5645569620253165" departLane="random">
        <route edges="21188_op 21187_op 21186_op 21185_op 21184_op 1221_sa 1222_sa 1220_sa 1047_sa 1214_sa 1215_sa 1217_sa 1216_sa 1130_sa 1131_sa 1131_op"/>
    </vehicle>
    <vehicle id="veh_1623528" depart="0.5670886075949367" departLane="random">
        <route edges="21163_op 21162_op 21175_sa 21174_sa 21173_sa 21187_op 21227_op 21228_op 21229_op 21204_op 21225_op 21207_op 1214_op 8008_sa 21203_sa 21204_sa 21139_sa 21205_sa 21236_op 21237_op 21216_sa 30031_op 30030_op 30030_sa"/>
    </vehicle>
    <vehicle id="veh_1770645" depart="0.5721518987341773" departLane="random">
        <route edges="21232_op"/>
    </vehicle>
    <vehicle id="veh_970163" depart="0.5746835443037974" departLane="random">
        <route edges="1127_op 1041_sa 1043_sa"/>
    </vehicle>
    <vehicle id="veh_1436661" depart="0.5772151898734177" departLane="random">
        <route edges="1002_sa 1001_sa 1202_sa 1203_sa 1201_sa 1060_sa 1063_sa 1065_op"/>
    </vehicle>
    <vehicle id="veh_1165346" depart="0.579746835443038" departLane="random">
        <route edges="21135_sa 1048_op 1131_op 1045_sa 1045_op 1130_op 1216_op"/>
    </vehicle>
    <vehicle id="veh_1032655" depart="0.5822784810126582" departLane="random">
        <route edges="1018_op 1005_sa 1002_sa 1023_sa 1227_sa 1226_sa 1225_sa 1065_sa 1064_sa 1231_op 1230_op 1230_sa"/>
    </vehicle>
    <vehicle id="veh_1777547" depart="0.5848101265822785" departLane="random">
        <route edges="1018_sa"/>
    </vehicle>
    <vehicle id="veh_881950" depart="0.5873417721518988" departLane="random">
        <route edges="21266_sa 21251_sa 8006_op 15809_op 1113_op 1113_sa"/>
    </vehicle>
    <vehicle id="veh_1018674" depart="0.589873417721519" departLane="random">
        <route edges="1127_op 1041_sa 1040_sa 1045_op 15363_op 21245_op 30062_sa"/>
    </vehicle>
    <vehicle id="veh_1528094" depart="0.5924050632911393" departLane="random">
        <route edges="1028_op 1031_sa 1032_sa 1029_op 1124_sa"/>
    </vehicle>