<routes>
    <vehicle id="veh_1769914" depart="0.0" departLane="random">
        <route edges="1073_op"/>
    </vehicle>
    <vehicle id="veh_1434358" depart="0.14814814814814814" departLane="random">
        <route edges="21160_op 21186_op 21221_op 21222_op 21223_op 21224_op 21203_op 8008_op 1025_op 1056_op 8002_op 8001_op 1224_op 1223_op 1076_op 1064_op 1063_op 1060_op 30193_sa"/>
    </vehicle>
    <vehicle id="veh_533375" depart="0.5925925925925926" departLane="random">
        <route edges="21185_op 21184_op 1229_op 1228_op 8003_op 8002_op 1036_op 1013_sa 1011_sa 1012_sa 1012_op"/>
    </vehicle>
    <vehicle id="veh_121209" depart="0.888888888888889" departLane="random">
        <route edges="21187_op 21186_op 21185_op 21184_op 1229_op 1228_op 1228_sa"/>
    </vehicle>
    <vehicle id="veh_480399" depart="1.037037037037037" departLane="random">
        <route edges="30097_op 30096_op 30101_sa"/>
    </vehicle>
    <vehicle id="veh_1303761" depart="1.3333333333333335" departLane="random">
        <route edges="21252_sa 21251_sa 8006_op 15809_op 1124_op 21136_op 21248_sa"/>
    </vehicle>
    <vehicle id="veh_1337579" depart="1.4814814814814814" departLane="random">
        <route edges="30200_op 1063_op 1060_op 1201_op 1203_op 1202_op 1001_op 1001_sa 1202_sa 1203_sa 1201_sa 1060_sa 1063_sa 1064_sa"/>
    </vehicle>
    <vehicle id="veh_1437398" depart="1.6296296296296295" departLane="random">
        <route edges="21214_op 21214_sa"/>
    </vehicle>
    <vehicle id="veh_170740" depart="1.777777777777778" departLane="random">
        <route edges="21138_op 21228_sa 21227_sa 21160_sa"/>
    </vehicle>
    <vehicle id="veh_448299" depart="1.925925925925926" departLane="random">
        <route edges="1018_sa 1059_sa 1106_sa 1099_op 1038_sa 1039_sa 1039_op"/>
    </vehicle>
    <vehicle id="veh_668853" depart="2.074074074074074" departLane="random">
        <route edges="1036_op 1013_sa 1011_sa 1009_sa 1004_sa 1002_op 1021_op 1109_sa"/>
    </vehicle>
    <vehicle id="veh_1090836" depart="2.3703703703703702" departLane="random">
        <route edges="1109_op 1109_sa"/>
    </vehicle>
    <vehicle id="veh_893243" depart="2.666666666666667" departLane="random">
        <route edges="15342_sa 1042_sa 8005_sa 1016_sa 1011_sa 1014_op 1034_op 1040_op 1043_sa 1031_sa 1033_sa"/>
    </vehicle>
    <vehicle id="veh_530110" depart="2.814814814814815" departLane="random">
        <route edges="21207_op 1215_sa 1217_sa 1216_sa 1130_sa 1131_sa 1048_sa 1033_op 1032_sa"/>
    </vehicle>
    <vehicle id="veh_212577" depart="2.962962962962963" departLane="random">
        <route edges="21242_sa"/>
    </vehicle>
    <vehicle id="veh_1340413" depart="3.259259259259259" departLane="random">
        <route edges="30181_sa"/>
    </vehicle>
    <vehicle id="veh_1727599" depart="3.4074074074074074" departLane="random">
        <route edges="30202_sa"/>
    </vehicle>
    <vehicle id="veh_1034649" depart="3.555555555555556" departLane="random">
        <route edges="1232_sa"/>
    </vehicle>
    <vehicle id="veh_201160" depart="3.851851851851852" departLane="random">
        <route edges="30198_op 30191_op 1025_sa 1214_sa 1215_sa"/>
    </vehicle>
    <vehicle id="veh_315606" depart="4.0" departLane="random">
        <route edges="15217_sa 21217_sa 21184_op 1218_op 21158_sa 21159_sa 21156_sa 21146_sa"/>
    </vehicle>
    <vehicle id="veh_284759" depart="4.148148148148148" departLane="random">
        <route edges="1043_sa 1031_sa 1033_sa"/>
    </vehicle>
    <vehicle id="veh_889050" depart="4.296296296296297" departLane="random">
        <route edges="1018_sa 1059_sa 1127_op 1037_sa 1038_sa"/>
    </vehicle>
    <vehicle id="veh_1034512" depart="4.592592592592593" departLane="random">
        <route edges="1033_op 1031_op 1043_op 1040_sa 1034_sa"/>
    </vehicle>
    <vehicle id="veh_885907" depart="4.888888888888889" departLane="random">
        <route edges="21206_op 21205_op 21139_op 21204_op 21203_op 8008_op 1025_op 30191_sa"/>
    </vehicle>
    <vehicle id="veh_1447724" depart="5.037037037037037" departLane="random">
        <route edges="30093_op 21164_sa 21163_op 21162_op 21161_op 21159_op 21160_op 21186_op 21185_op 21184_op 1229_op 1228_op 8003_op 8002_op 1036_op 8004_op 8005_op 1034_op 1040_op 1043_sa 1031_sa 1033_sa"/>
    </vehicle>
    <vehicle id="veh_686974" depart="5.185185185185185" departLane="random">
        <route edges="21160_op 21187_sa 21188_sa"/>
    </vehicle>
    <vehicle id="veh_1238397" depart="5.333333333333334" departLane="random">
        <route edges="1063_sa"/>
    </vehicle>
    <vehicle id="veh_687325" depart="5.481481481481481" departLane="random">
        <route edges="1036_op 1013_sa 1011_sa 1011_op 1013_op"/>
    </vehicle>
    <vehicle id="veh_346964" depart="5.62962962962963" departLane="random">
        <route edges="30188_sa 1067_sa 30193_sa 1226_sa 1225_sa 1232_sa 1232_op"/>
    </vehicle>
    <vehicle id="veh_879918" depart="5.777777777777778" departLane="random">
        <route edges="21144_op 1206_sa 1207_sa 1230_sa 1231_sa 1064_op 1063_op"/>
    </vehicle>
    <vehicle id="veh_85269" depart="5.925925925925926" departLane="random">
        <route edges="1001_sa 1024_sa 1224_op 1223_op 30188_op 30187_op 1073_sa 21145_sa"/>
    </vehicle>
    <vehicle id="veh_18637" depart="6.222222222222222" departLane="random">
        <route edges="21194_op 21227_sa 21160_sa"/>
    </vehicle>
    <vehicle id="veh_338990" depart="6.518518518518518" departLane="random">
        <route edges="1201_sa 1060_sa 1063_sa 1064_sa 1066_op 30181_sa 30182_sa 1210_op 1230_sa 1231_sa 1064_op 1063_op 1060_op 1201_op 1203_op 1202_op 1003_op 1008_op 1011_sa 1014_op 1034_op 1040_op"/>
    </vehicle>
    <vehicle id="veh_173262" depart="6.814814814814815" departLane="random">
        <route edges="1014_op 1034_op 1040_op 1043_sa 1044_op 1131_op 1045_sa 1045_op 1130_op 15342_op 21214_sa 21215_sa 21216_sa 30031_op 30030_op 30032_op 30172_op 30173_op 30173_sa"/>
    </vehicle>
    <vehicle id="veh_312802" depart="6.962962962962963" departLane="random">
        <route edges="1097_op 1106_sa 1099_op 1028_op 1031_sa 1032_sa 1032_op"/>
    </vehicle>
    <vehicle id="veh_312466" depart="7.111111111111112" departLane="random">
        <route edges="30134_op 30134_sa"/>
    </vehicle>
    <vehicle id="veh_1090066" depart="7.2592592592592595" departLane="random">
        <route edges="21216_op 21215_op 21242_op 21242_sa 21214_op 21212_op 21211_op 1215_op 1215_sa"/>
    </vehicle>
    <vehicle id="veh_286976" depart="7.703703703703704" departLane="random">
        <route edges="1202_op"/>
    </vehicle>
    <vehicle id="veh_1015479" depart="7.851851851851852" departLane="random">
        <route edges="8009_op 21197_sa 21198_sa 21138_sa 21140_op 21205_sa 21236_op 21237_op 21216_sa 30031_op 30030_op 30032_op 30172_op 30173_op 30173_sa"/>
    </vehicle>
    <vehicle id="veh_1592943" depart="8.0" departLane="random">
        <route edges="1210_op 1210_sa"/>
    </vehicle>
    <vehicle id="veh_287380" depart="8.148148148148147" departLane="random">
        <route edges="30193_op 1201_op 1203_op 1202_op 1003_op"/>
    </vehicle>
    <vehicle id="veh_1592629" depart="8.592592592592593" departLane="random">
        <route edges="21136_sa"/>
    </vehicle>
    <vehicle id="veh_1469175" depart="8.88888888888889" departLane="random">
        <route edges="1010_sa 1007_op 1006_op 1008_op 1013_op 1036_sa 8002_sa 8003_sa 1228_sa 1229_sa 21184_sa 21217_op 21217_sa 21184_op 1221_sa 1222_sa 1220_sa 1027_sa 30191_op 1025_sa 1214_sa 21207_sa 21208_sa 21209_sa 21237_op
21216_sa"/>
    </vehicle>
    <vehicle id="veh_1747229" depart="9.037037037037038" departLane="random">
        <route edges="21232_sa"/>
    </vehicle>
    <vehicle id="veh_702858" depart="9.185185185185185" departLane="random">
        <route edges="21137_sa 30202_op 21245_op 30062_sa 30062_op"/>
    </vehicle>
    <vehicle id="veh_33271" depart="9.333333333333334" departLane="random">
        <route edges="21212_sa 21214_sa 21215_sa 21215_op"/>
    </vehicle>
    <vehicle id="veh_461521" depart="9.481481481481481" departLane="random">
        <route edges="1011_op 1013_op 1036_sa 8002_sa 8003_sa 1228_sa 1229_sa 21184_sa 21184_op"/>
    </vehicle>
    <vehicle id="veh_117992" depart="9.62962962962963" departLane="random">
        <route edges="1011_op 1013_op 1053_op 1054_sa 1026_sa 1025_sa 1047_op 1220_op"/>
    </vehicle>
    <vehicle id="veh_164914" depart="9.925925925925926" departLane="random">
        <route edges="1204_op 1205_op 30184_op 30183_op 1081_sa 1066_sa 1064_op 1065_op"/>
    </vehicle>
    <vehicle id="veh_1723801" depart="10.074074074074074" departLane="random">
        <route edges="1125_sa 1212_sa 1213_sa 15809_sa 8006_sa"/>
    </vehicle>
    <vehicle id="veh_834275" depart="10.37037037037037" departLane="random">
        <route edges="21247_sa 21137_op 21135_sa 1033_op 1031_op 1043_op 1040_sa 1034_sa 8005_sa 8004_sa 1036_sa"/>
    </vehicle>
    <vehicle id="veh_824891" depart="10.518518518518519" departLane="random">
        <route edges="1034_sa 1042_op 15342_op 21214_sa 21231_sa 21231_op 21215_sa 21216_sa 30031_op 30030_op 30030_sa"/>
    </vehicle>
    <vehicle id="veh_32509" depart="10.666666666666668" departLane="random">
        <route edges="21144_op 1206_sa 1207_sa 1230_sa 1231_sa 1076_sa 1067_sa 30193_sa"/>
    </vehicle>
    <vehicle id="veh_1288093" depart="10.814814814814815" departLane="random">
        <route edges="1022_op 1002_sa 1001_sa 1202_sa 1202_op 1024_sa 8001_sa"/>
    </vehicle>
    <vehicle id="veh_1015217" depart="10.962962962962962" departLane="random">
        <route edges="1109_op 1061_sa 1059_sa 1127_op 1037_sa 1028_op 1028_sa"/>
    </vehicle>
    <vehicle id="veh_259312" depart="11.11111111111111" departLane="random">
        <route edges="21218_sa 21217_sa 21185_sa"/>
    </vehicle>
    <vehicle id="veh_183822" depart="11.25925925925926" departLane="random">
        <route edges="30024_op 30062_op 21245_sa 30202_sa 21246_sa 1131_op 1045_sa 1034_sa"/>
    </vehicle>
    <vehicle id="veh_1350652" depart="11.407407407407408" departLane="random">
        <route edges="1043_sa 1031_sa 1033_sa"/>
    </vehicle>
    <vehicle id="veh_42464" depart="11.555555555555555" departLane="random">
        <route edges="21187_sa 21232_op 21233_op 21234_op 21235_op 21236_op 21237_op 21216_sa"/>
    </vehicle>
    <vehicle id="veh_295441" depart="11.851851851851851" departLane="random">
        <route edges="1034_op 1040_op 1043_sa 1031_sa 1032_sa 1032_op 1031_op 1044_op 1131_op"/>
    </vehicle>
    <vehicle id="veh_814789" depart="12.148148148148149" departLane="random">
        <route edges="1010_sa 1005_sa 1002_sa"/>
    </vehicle>
    <vehicle id="veh_1001114" depart="12.592592592592592" departLane="random">
        <route edges="30186_sa 30188_sa 1223_sa 1224_sa 8001_sa 8002_sa 1056_sa 1025_sa"/>
    </vehicle>
    <vehicle id="veh_497122" depart="12.74074074074074" departLane="random">
        <route edges="1067_op 30188_op 30187_op"/>
    </vehicle>
    <vehicle id="veh_808047" depart="13.185185185185185" departLane="random">
        <route edges="30024_op 30062_op 21245_sa 15363_sa"/>
    </vehicle>
    <vehicle id="veh_509831" depart="13.333333333333332" departLane="random">
        <route edges="21236_op"/>
    </vehicle>
    <vehicle id="veh_1492864" depart="13.481481481481483" departLane="random">
        <route edges="1037_sa 1028_op 1031_sa 1033_sa 21135_op 21248_op"/>
    </vehicle>
    <vehicle id="veh_737378" depart="13.62962962962963" departLane="random">
        <route edges="21184_op 1229_op 1228_op 1228_sa"/>
    </vehicle>
    <vehicle id="veh_224554" depart="13.777777777777779" departLane="random">
        <route edges="1038_op 1037_op 1015_op 1012_op 1011_op 1008_sa 1003_sa"/>
    </vehicle>
    <vehicle id="veh_741343" depart="14.222222222222223" departLane="random">
        <route edges="1127_sa 1059_op 1061_op 1109_sa"/>
    </vehicle>
    <vehicle id="veh_741665" depart="14.518518518518519" departLane="random">
        <route edges="30099_op 30096_op 30101_sa 30112_sa 30104_sa 30028_sa 30092_sa 30029_sa 21188_op 21187_op 21186_op 21185_op 21184_op 1229_op 1228_op 8003_op 8002_op 1036_op 1013_sa 1011_sa 1012_sa 1015_sa 1015_op 1012_op 
1011_op 1013_op 1036_sa 8002_sa 8003_sa 1228_sa 1229_sa 21184_sa 21185_sa 21186_sa 21187_sa 21188_sa"/>
    </vehicle>
    <vehicle id="veh_804984" depart="14.666666666666666" departLane="random">
        <route edges="21242_sa"/>
    </vehicle>
    <vehicle id="veh_208007" depart="14.814814814814813" departLane="random">
        <route edges="21216_op 21215_op 21214_op 15342_sa 1042_sa 1042_op 15342_op 21214_sa 21231_sa 21230_sa"/>
    </vehicle>
    <vehicle id="veh_1124469" depart="14.962962962962964" departLane="random">
        <route edges="21135_sa 1033_op 1031_op 1043_op 1041_op 1127_sa 1059_op 1018_op"/>
    </vehicle>
    <vehicle id="veh_198582" depart="15.111111111111109" departLane="random">
        <route edges="21216_op 21215_op 21214_op 15342_sa 1042_sa 1034_op 1040_op 1041_op 1127_sa 1097_sa"/>
    </vehicle>
    <vehicle id="veh_261009" depart="15.25925925925926" departLane="random">
        <route edges="1042_op 15342_op 21214_sa 21231_sa 21231_op 21215_sa 21216_sa 21216_op 21215_op 21242_op 21242_sa 21214_op 15342_sa 1042_sa 1042_op"/>
    </vehicle>
    <vehicle id="veh_299110" depart="15.407407407407408" departLane="random">
        <route edges="1045_sa 1034_sa 1014_sa 1011_op 1008_sa 1003_sa 1202_sa"/>
    </vehicle>
    <vehicle id="veh_470282" depart="15.555555555555555" departLane="random">
        <route edges="1044_op 1131_op 15363_op 21245_op 30062_sa 30024_sa"/>
    </vehicle>
    <vehicle id="veh_994309" depart="15.703703703703704" departLane="random">
        <route edges="1023_op 1004_op 1007_sa 1018_sa"/>
    </vehicle>
    <vehicle id="veh_301593" depart="15.851851851851851" departLane="random">
        <route edges="21208_sa 21209_sa 21236_sa 21206_sa"/>
    </vehicle>
    <vehicle id="veh_752324" depart="16.14814814814815" departLane="random">
        <route edges="21216_op 21215_op 21242_op 21242_sa 21214_op 15342_sa 1042_sa 1014_sa 1009_sa 1004_sa 1004_op 1009_op 1011_op 1013_op 1036_sa 1036_op 8004_op 8005_op 1042_op 15342_op 21214_sa 21231_sa 21231_op 21215_sa 
21216_sa 21216_op 21215_op 21242_op 21242_sa 21214_op 21212_op 21211_op 1215_op 1214_op 8008_sa 8008_op 1214_sa 1215_sa 1217_sa 1216_sa 1042_sa 8005_sa 8004_sa 1036_sa 8001_op 1224_op 1223_op 1076_op 1064_op 30200_sa 30201_sa 
30201_op 30200_op 1064_sa 1066_op 1066_sa 1076_sa 1223_sa 1224_sa 8001_sa 1036_op 8004_op 8005_op 1034_op 1040_op 1043_sa 1043_op 1041_op 1015_op 1010_sa 1005_sa 1002_sa"/>
    </vehicle>
    <vehicle id="veh_303628" depart="16.296296296296294" departLane="random">
        <route edges="21216_op 21215_op 21214_op 15342_sa 1042_sa 1014_sa 1012_sa 1012_op 1014_op 1042_op 1216_op 1217_op 1215_op 1214_op 1025_op"/>
    </vehicle>
    <vehicle id="veh_1316824" depart="16.74074074074074" departLane="random">
        <route edges="21216_op 21215_op 21242_op 21242_sa 21242_op 21243_op 30202_sa 21246_sa"/>
    </vehicle>
    <vehicle id="veh_167725" depart="17.037037037037035" departLane="random">
        <route edges="21251_sa 8006_op 15809_op 1124_op 1049_op 1048_op"/>
    </vehicle>
    <vehicle id="veh_16743" depart="17.185185185185187" departLane="random">
        <route edges="1125_sa 1212_sa 1213_sa 15809_sa 8006_sa 21251_op 21265_sa 21272_sa 21273_sa"/>
    </vehicle>
    <vehicle id="veh_1520365" depart="17.333333333333332" departLane="random">
        <route edges="1031_sa"/>
    </vehicle>
    <vehicle id="veh_182046" depart="17.48148148148148" departLane="random">
        <route edges="21216_op 21237_sa 21236_sa 21205_op 21139_op 21204_op 21203_op 8008_op 1025_op 30191_sa"/>
    </vehicle>
    <vehicle id="veh_1559224" depart="17.62962962962963" departLane="random">
        <route edges="21216_op 21237_sa 21236_sa 21205_op 21140_sa 21138_op 21228_sa 21193_op 21222_sa"/>
    </vehicle>
    <vehicle id="veh_1524679" depart="17.77777777777778" departLane="random">
        <route edges="21246_sa 1131_op 1130_op 1216_op 1217_op 1215_op 1214_op 1047_op 1220_op 1222_op 1221_op 21184_sa"/>
    </vehicle>
    <vehicle id="veh_1529703" depart="17.925925925925927" departLane="random">
        <route edges="1028_op"/>
    </vehicle>
    <vehicle id="veh_556754" depart="18.37037037037037" departLane="random">
        <route edges="1127_op"/>
    </vehicle>
    <vehicle id="veh_93280" depart="18.51851851851852" departLane="random">
        <route edges="1215_sa"/>
    </vehicle>
    <vehicle id="veh_336937" depart="18.814814814814817" departLane="random">
        <route edges="1001_op 1004_op 1009_op 1014_op 1042_op 1042_sa 1042_op 15342_op 21214_sa"/>
    </vehicle>
    <vehicle id="veh_263284" depart="18.962962962962962" departLane="random">
        <route edges="8006_op"/>
    </vehicle>
    <vehicle id="veh_1822607" depart="19.11111111111111" departLane="random">
        <route edges="30004_sa 30005_sa 30005_op 30004_op"/>
    </vehicle>
    <vehicle id="veh_540277" depart="19.40740740740741" departLane="random">
        <route edges="1065_sa 1063_op 1060_op 30193_sa 1227_op 1023_op 1004_op 1009_op 1014_op 1034_op 1040_op 1043_sa"/>
    </vehicle>
    <vehicle id="veh_1552056" depart="19.703703703703702" departLane="random">
        <route edges="21228_sa 21193_op 21223_op 21224_op 21204_sa 21229_sa 21228_sa"/>
    </vehicle>
    <vehicle id="veh_1546353" depart="19.85185185185185" departLane="random">
        <route edges="21184_op 1229_op 1228_op 8003_op 8002_op 1036_op 1013_sa 1011_sa 1012_sa 1015_sa 1127_sa 1106_sa"/>
    </vehicle>
    <vehicle id="veh_506081" depart="20.0" departLane="random">
        <route edges="1042_op 15342_op 15342_sa 15342_op 21212_op 21226_sa 21207_op 1215_sa 1217_sa"/>
    </vehicle>
    <vehicle id="veh_303554" depart="20.14814814814815" departLane="random">
        <route edges="8005_op 1014_sa 1009_sa 1004_sa 1023_sa"/>
    </vehicle>
    <vehicle id="veh_538501" depart="20.592592592592595" departLane="random">
        <route edges="30193_op 1067_op 30188_op 30187_op"/>
    </vehicle>
    <vehicle id="veh_1084053" depart="20.74074074074074" departLane="random">
        <route edges="1047_sa 1214_sa 1215_sa 1217_sa 1216_sa 1130_sa 1131_sa 21246_op 21246_sa 1131_op 1045_sa 1045_op 1130_op 1216_op 1217_op 1215_op 1214_op 1214_sa"/>
    </vehicle>
    <vehicle id="veh_562749" depart="20.88888888888889" departLane="random">
        <route edges="1011_op 1013_op 1053_op 1052_op 1217_op 21211_sa"/>
    </vehicle>
    <vehicle id="veh_188587" depart="21.037037037037038" departLane="random">
        <route edges="21195_op 21233_op 21234_op 21235_op 21206_sa 21206_op 21236_op"/>
    </vehicle>
    <vehicle id="veh_436146" depart="21.185185185185183" departLane="random">
        <route edges="21188_op"/>
    </vehicle>
    <vehicle id="veh_190249" depart="21.48148148148148" departLane="random">
        <route edges="21266_sa 21251_sa 8006_op 15809_op 1124_op 1049_op"/>
    </vehicle>
    <vehicle id="veh_245327" depart="21.77777777777778" departLane="random">
        <route edges="1215_op 1214_op 1047_op 1220_op 1222_op 1221_op 21184_sa 21185_sa 21186_sa 21187_sa 21188_sa 30029_op 30092_op 30028_op 30104_op 30112_op 30101_op 30096_sa 30097_sa 30098_sa"/>
    </vehicle>
    <vehicle id="veh_975008" depart="21.925925925925924" departLane="random">
        <route edges="1036_op 8004_op 8005_op 1034_op 1045_op 15363_op 21245_op 30062_sa 30024_sa"/>
    </vehicle>
    <vehicle id="veh_233169" depart="22.22222222222222" departLane="random">
        <route edges="21247_sa 21246_sa 1048_sa 1048_op 1044_sa 1028_sa 1099_sa"/>
    </vehicle>
    <vehicle id="veh_1282133" depart="22.37037037037037" departLane="random">
        <route edges="1037_sa"/>
    </vehicle>
    <vehicle id="veh_236468" depart="22.51851851851852" departLane="random">
        <route edges="1201_sa 1060_sa 1063_sa 1064_sa"/>
    </vehicle>
    <vehicle id="veh_122399" depart="22.666666666666664" departLane="random">
        <route edges="21216_op 21215_op 21242_op 21242_sa 21214_op 15342_sa 1042_sa"/>
    </vehicle>
    <vehicle id="veh_1362623" depart="22.814814814814817" departLane="random">
        <route edges="30154_op 21245_sa 30202_sa 21137_op 21248_op 21136_sa 1124_sa 15809_sa 8006_sa 21251_op 21252_op"/>
    </vehicle>
    <vehicle id="veh_1788280" depart="22.962962962962962" departLane="random">
        <route edges="1073_sa"/>
    </vehicle>
    <vehicle id="veh_571998" depart="23.11111111111111" departLane="random">
        <route edges="21247_sa 21246_sa 1044_sa 1028_sa 1037_op"/>
    </vehicle>
    <vehicle id="veh_360931" depart="23.25925925925926" departLane="random">
        <route edges="30024_op 30062_op 21245_sa 15363_sa"/>
    </vehicle>
    <vehicle id="veh_136056" depart="23.40740740740741" departLane="random">
        <route edges="1047_sa 1214_sa 1215_sa 1217_sa 1216_sa 1130_sa 1131_sa 1131_op 1045_sa 1040_op"/>
    </vehicle>
    <vehicle id="veh_118667" depart="23.555555555555557" departLane="random">
        <route edges="30062_op 21245_sa 21243_sa 21242_sa 21215_sa 21237_sa 21237_op 21215_op 21242_op 21243_op 21245_op 30062_sa 30062_op 21245_sa 21243_sa 21242_sa 21215_sa 21237_sa 21236_sa 21235_sa 21234_sa 21233_sa 21232_sa 
21188_sa"/>
    </vehicle>
    <vehicle id="veh_1827662" depart="23.85185185185185" departLane="random">
        <route edges="1048_sa"/>
    </vehicle>
    <vehicle id="veh_573569" depart="24.0" departLane="random">
        <route edges="21272_op 21257_sa 21256_sa 21255_sa 15885_sa 1125_sa 1058_op 1208_sa 1209_sa 1039_op 1038_op 1028_op"/>
    </vehicle>
    <vehicle id="veh_573910" depart="24.14814814814815" departLane="random">
        <route edges="1109_op 1109_sa"/>
    </vehicle>
    <vehicle id="veh_1802560" depart="24.296296296296298" departLane="random">
        <route edges="21177_op"/>
    </vehicle>
    <vehicle id="veh_576306" depart="24.59259259259259" departLane="random">
        <route edges="21216_op 21215_op 21214_op 15342_sa 1042_sa 1042_op"/>
    </vehicle>
    <vehicle id="veh_157204" depart="24.74074074074074" departLane="random">
        <route edges="21230_op 21209_sa 21237_op 21215_op 21242_op 21243_op 21245_op 30062_sa 30062_op"/>
    </vehicle>
    <vehicle id="veh_78154" depart="24.88888888888889" departLane="random">
        <route edges="1008_op 1013_op 1053_op 1053_sa 1036_sa"/>
    </vehicle>
    <vehicle id="veh_13556" depart="25.037037037037038" departLane="random">
        <route edges="1044_sa 1028_sa 1037_op 1127_sa 1059_op 1018_op"/>
    </vehicle>
    <vehicle id="veh_1370306" depart="25.333333333333332" departLane="random">
        <route edges="21216_op 21237_sa 21236_sa 21235_sa 21234_sa 21233_sa 21232_sa 21188_sa"/>
    </vehicle>
    <vehicle id="veh_424653" depart="25.48148148148148" departLane="random">
        <route edges="30201_op 30200_op 1065_op 1232_sa 30201_op"/>
    </vehicle>
    <vehicle id="veh_448903" depart="25.77777777777778" departLane="random">
        <route edges="1042_sa 1014_sa 1009_sa 1004_sa 1023_sa 1227_sa 30193_op 1060_sa 1063_sa"/>
    </vehicle>
    <vehicle id="veh_220226" depart="25.925925925925924" departLane="random">
        <route edges="1207_sa"/>
    </vehicle>
    <vehicle id="veh_958745" depart="26.074074074074073" departLane="random">
        <route edges="1014_op"/>
    </vehicle>
    <vehicle id="veh_268247" depart="26.222222222222225" departLane="random">
        <route edges="1036_op 8004_op 8005_op 1034_op 1034_sa"/>
    </vehicle>
    <vehicle id="veh_79322" depart="26.814814814814813" departLane="random">
        <route edges="30067_sa 30068_sa 30069_sa 30086_sa 30086_op 30023_op 30169_op 30024_op 30062_op 21245_sa"/>
    </vehicle>
    <vehicle id="veh_1694925" depart="26.962962962962965" departLane="random">
        <route edges="15809_sa"/>
    </vehicle>
    <vehicle id="veh_1097182" depart="27.11111111111111" departLane="random">
        <route edges="1049_sa 1124_sa 1213_op"/>
    </vehicle>
    <vehicle id="veh_203364" depart="27.407407407407405" departLane="random">
        <route edges="21185_op 21184_op 1229_op 1228_op 30187_sa 30188_sa 1067_sa 1060_sa 1063_sa"/>
    </vehicle>
    <vehicle id="veh_456095" depart="27.555555555555557" departLane="random">
        <route edges="21245_sa 30202_sa 21246_sa 1131_op 1045_sa 1034_sa 1034_op"/>
    </vehicle>
    <vehicle id="veh_389310" depart="27.703703703703706" departLane="random">
        <route edges="1125_sa 1212_sa 1213_sa 1124_op 21136_op 21248_sa 21137_sa 30202_op 30202_sa 30202_op 21245_op 30062_sa 30024_sa 30169_sa 30023_sa 30069_op"/>
    </vehicle>
    <vehicle id="veh_1379852" depart="27.85185185185185" departLane="random">
        <route edges="1210_sa"/>
    </vehicle>
    <vehicle id="veh_241456" depart="28.0" departLane="random">
        <route edges="1001_op 1002_op 1021_op 1107_op 1098_op 1097_op 1127_op 1037_sa 1038_sa 1039_sa 1113_sa 15809_sa 8006_sa"/>
    </vehicle>
    <vehicle id="veh_587507" depart="28.148148148148145" departLane="random">
        <route edges="1028_sa"/>
    </vehicle>
    <vehicle id="veh_1067733" depart="28.296296296296298" departLane="random">
        <route edges="21172_sa 21171_sa 21174_op 21165_op"/>
    </vehicle>
    <vehicle id="veh_1258135" depart="28.444444444444446" departLane="random">
        <route edges="21245_sa 30202_sa 21246_sa"/>
    </vehicle>
    <vehicle id="veh_1686251" depart="28.59259259259259" departLane="random">
        <route edges="1073_op"/>
    </vehicle>
    <vehicle id="veh_206882" depart="29.037037037037038" departLane="random">
        <route edges="21220_sa 8009_sa 1220_op 1222_op 1221_op 21184_sa"/>
    </vehicle>
    <vehicle id="veh_416717" depart="29.185185185185187" departLane="random">
        <route edges="21186_sa 21227_op 21228_op 21229_op 21230_op 21231_op 21214_op 15342_sa 1130_sa 1131_sa 1048_sa 1049_sa 1124_sa"/>
    </vehicle>
    <vehicle id="veh_947023" depart="29.333333333333332" departLane="random">
        <route edges="1213_sa 1124_op 1049_op 1048_op 1131_op 1130_op 1216_op 1217_op 1215_op 1214_op 8008_sa"/>
    </vehicle>
    <vehicle id="veh_1789036" depart="29.77777777777778" departLane="random">
        <route edges="21266_sa 21251_sa 8006_op 15809_op 1124_op 1049_op 1048_op 1131_op 1130_op 1216_op 1217_op 1215_op 1214_op 8008_sa 8008_op 1214_sa 21207_sa 21226_op 21212_sa 15342_sa 1130_sa 1131_sa 1048_sa 1049_sa 1124_sa 
15809_sa 8006_sa"/>
    </vehicle>
    <vehicle id="veh_269778" depart="29.925925925925927" departLane="random">
        <route edges="30069_sa 30023_op 30169_op 30024_op 30062_op 21245_sa 30202_sa 21246_sa 1048_sa 1049_sa 1124_sa 15809_sa 8006_sa 21251_op 21251_sa"/>
    </vehicle>
    <vehicle id="veh_937399" depart="30.222222222222218" departLane="random">
        <route edges="1049_sa"/>
    </vehicle>
    <vehicle id="veh_393826" depart="30.370370370370374" departLane="random">
        <route edges="30200_sa 30199_op 1230_op 1230_sa"/>
    </vehicle>
    <vehicle id="veh_1385218" depart="30.51851851851852" departLane="random">
        <route edges="21176_sa 21161_op 21159_op 21160_op 21186_op 21185_op 21184_op 1229_op 1228_op 8003_op 8002_op 1036_op 1013_sa 1013_op 1013_sa 1011_sa 1009_sa"/>
    </vehicle>
    <vehicle id="veh_322845" depart="30.814814814814817" departLane="random">
        <route edges="1038_op"/>
    </vehicle>
    <vehicle id="veh_1385695" depart="30.962962962962962" departLane="random">
        <route edges="1038_op"/>
    </vehicle>
    <vehicle id="veh_410028" depart="31.11111111111111" departLane="random">
        <route edges="1044_sa 1043_op 1040_sa 1034_sa 8005_sa 8004_sa 1036_sa 8001_op 1024_op 1001_op 1002_op 1021_op 1107_op 1098_op 1097_op 1127_op 1037_sa"/>
    </vehicle>
    <vehicle id="veh_19897" depart="31.259259259259263" departLane="random">
        <route edges="21208_sa"/>
    </vehicle>
    <vehicle id="veh_1386133" depart="31.555555555555554" departLane="random">
        <route edges="1003_op"/>
    </vehicle>
    <vehicle id="veh_275660" depart="31.703703703703702" departLane="random">
        <route edges="1038_op 1028_op 1028_sa"/>
    </vehicle>
    <vehicle id="veh_122323" depart="31.851851851851855" departLane="random">
        <route edges="1073_op 1073_sa"/>
    </vehicle>
    <vehicle id="veh_206872" depart="32.0" departLane="random">
        <route edges="30096_sa 30097_sa 30122_op 30121_op 30120_sa 30096_op 30096_sa 30097_sa 30122_op 30040_op 30040_sa"/>
    </vehicle>
    <vehicle id="veh_1822002" depart="32.2962962962963" departLane="random">
        <route edges="21194_sa"/>
    </vehicle>
    <vehicle id="veh_602095" depart="32.44444444444444" departLane="random">
        <route edges="1025_sa 1214_sa 1215_sa 1217_sa 1216_sa 1130_sa 1131_sa 1131_op 1045_sa 1034_sa 8005_sa 1016_sa 1008_sa 1003_sa 1202_sa 1203_sa 1201_sa 30193_sa"/>
    </vehicle>
    <vehicle id="veh_229808" depart="32.59259259259259" departLane="random">
        <route edges="21160_sa 21159_sa 21156_sa 21146_sa"/>
    </vehicle>
    <vehicle id="veh_1249322" depart="32.74074074074074" departLane="random">
        <route edges="21207_op 1215_sa 1217_sa"/>
    </vehicle>
    <vehicle id="veh_1786957" depart="32.88888888888889" departLane="random">
        <route edges="21215_op 21214_op 15342_sa 1130_sa 1131_sa 1048_sa"/>
    </vehicle>
    <vehicle id="veh_1186797" depart="33.03703703703704" departLane="random">
        <route edges="21228_op 21229_op 21230_op 21231_op 21215_sa 21216_sa 30031_op 30030_op 30030_sa"/>
    </vehicle>
    <vehicle id="veh_153437" depart="33.18518518518518" departLane="random">
        <route edges="1220_sa 1027_sa 30191_op 1026_op 1054_op 1053_sa 1013_sa 1011_sa 1012_sa 1015_sa 1037_sa 1038_sa"/>
    </vehicle>
    <vehicle id="veh_1193195" depart="33.333333333333336" departLane="random">