<edges>
    <edge id="1044_sa" from="4554" to="4634" numLanes="2" spreadType="right" shape="13221226.885437006,3602033.339150908 13221153.239801481,3602227.573596847 13221080.875453297,3602421.205459311 
13221068.942003885,3602465.750003074 13221058.565914147,3602519.313956781 13221055.978849182,3602560.13956629 13221054.408131165,3602623.277279761 13221056.982950987,3602659.718827214 13221068.760553116,3602734.593646755"/>
    <edge id="1044_op" from="4634" to="4554" numLanes="2" spreadType="right" shape="13221068.760553116,3602734.593646755 13221056.982950987,3602659.718827214 13221054.408131165,3602623.277279761 13221055.978849182,3602560.13956629
13221058.565914147,3602519.313956781 13221068.942003885,3602465.750003074 13221080.875453297,3602421.205459311 13221153.239801481,3602227.573596847 13221226.885437006,3602033.339150908"/>
    <edge id="15363_sa" from="4497" to="4536" numLanes="2" spreadType="right" shape="13220818.113476334,3601268.348443654 13220707.69823376,3601363.304938826 13220570.499076428,3601465.923093993 
13220419.456115907,3601576.582361748 13220295.680864647,3601666.666364165 13220141.989390789,3601775.482256152 13220087.546590067,3601814.043467496 13220069.239765845,3601831.217291587 13220027.870771402,3601870.026230061 
13220002.18791773,3601903.064112968"/>
    <edge id="15363_op" from="4536" to="4497" numLanes="2" spreadType="right" shape="13220002.18791773,3601903.064112968 13220027.870771402,3601870.026230061 13220069.239765845,3601831.217291587 
13220087.546590067,3601814.043467496 13220141.989390789,3601775.482256152 13220295.680864647,3601666.666364165 13220419.456115907,3601576.582361748 13220570.499076428,3601465.923093993 13220707.69823376,3601363.304938826 
13220818.113476334,3601268.348443654"/>
    <edge id="1045_sa" from="4536" to="4635" numLanes="2" spreadType="right" shape="13220002.18791773,3601903.064112968 13219975.557067262,3601937.321640528 13219948.860426974,3601988.135651878 13219939.338714339,3602008.131863209
13219918.44705154,3602052.006748734 13219908.277459458,3602079.140592116 13219896.438965565,3602128.401927006 13219888.120950585,3602208.010285716 13219885.933188623,3602228.94776015 13219877.084736258,3602329.428042425 
13219876.64624879,3602334.406504825 13219872.16441477,3602385.299521566 13219870.08875154,3602407.16853129 13219856.001603948,3602555.59079656 13219843.571224317,3602682.923153462 13219838.325293323,3602776.484124542"/>
    <edge id="1045_op" from="4635" to="4536" numLanes="2" spreadType="right" shape="13219838.325293323,3602776.484124542 13219843.571224317,3602682.923153462 13219856.001603948,3602555.59079656 13219870.08875154,3602407.16853129 
13219872.16441477,3602385.299521566 13219876.64624879,3602334.406504825 13219877.084736258,3602329.428042425 13219885.933188623,3602228.94776015 13219888.120950585,3602208.010285716 13219896.438965565,3602128.401927006 
13219908.277459458,3602079.140592116 13219918.44705154,3602052.006748734 13219939.338714339,3602008.131863209 13219948.860426974,3601988.135651878 13219975.557067262,3601937.321640528 13220002.18791773,3601903.064112968"/>
    <edge id="1131_sa" from="4536" to="4554" numLanes="2" spreadType="right" shape="13220002.188474316,3601903.064371234 13220081.823098443,3601899.183861676 13220116.579269858,3601897.489609637 
13220441.677823966,3601884.626473568 13220525.029405894,3601883.308006114 13220653.442004498,3601902.78414804 13220775.781011686,3601932.818429039 13221063.294766117,3601992.969859452 13221226.885437006,3602033.339150908"/>
    <edge id="1131_op" from="4554" to="4536" numLanes="2" spreadType="right" shape="13221226.885437006,3602033.339150908 13221063.294766117,3601992.969859452 13220775.781011686,3601932.818429039 13220653.442004498,3601902.78414804
13220525.029405894,3601883.308006114 13220441.677823966,3601884.626473568 13220116.579269858,3601897.489609637 13220081.823098443,3601899.183861676 13220002.188474316,3601903.064371234"/>
    <edge id="8008_sa" from="4630" to="4603" numLanes="2" spreadType="right" shape="13217069.72473183,3602765.450037107 13217047.98403528,3602722.77827729 13217017.38008087,3602669.088163175 13216970.800666336,3602591.49658875 
13216902.57517682,3602488.27480705"/>
    <edge id="8008_op" from="4603" to="4630" numLanes="2" spreadType="right" shape="13216902.57517682,3602488.27480705 13216970.800666336,3602591.49658875 13217017.38008087,3602669.088163175 13217047.98403528,3602722.77827729 
13217069.72473183,3602765.450037107"/>
    <edge id="1025_sa" from="4680" to="4630" numLanes="2" spreadType="right" shape="13217305.108681919,3603333.089530301 13217178.01744567,3603015.13615428 13217113.225049248,3602862.028343201 
13217069.715826271,3602765.492654701"/>
    <edge id="1025_op" from="4630" to="4680" numLanes="2" spreadType="right" shape="13217069.715826271,3602765.492654701 13217113.225049248,3602862.028343201 13217178.01744567,3603015.13615428 
13217305.108681919,3603333.089530301"/>
    <edge id="1026_sa" from="4671" to="4680" numLanes="2" spreadType="right" shape="13217774.88494807,3603223.803876991 13217434.554659357,3603302.978193433 13217305.108570607,3603333.08991776"/>
    <edge id="1026_op" from="4680" to="4671" numLanes="2" spreadType="right" shape="13217305.108570607,3603333.08991776 13217434.554659357,3603302.978193433 13217774.88494807,3603223.803876991"/>
    <edge id="1027_sa" from="4650" to="4708" numLanes="2" spreadType="right" shape="13216552.691560738,3603004.198969788 13216552.737869637,3603004.270517084 13216678.283434756,3603192.393185554 
13216789.947236737,3603362.813748055 13216877.300754363,3603495.294114174"/>
    <edge id="1027_op" from="4708" to="4650" numLanes="2" spreadType="right" shape="13216877.300754363,3603495.294114174 13216789.947236737,3603362.813748055 13216678.283434756,3603192.393185554 
13216552.737869637,3603004.270517084 13216552.691560738,3603004.198969788"/>
    <edge id="8009_sa" from="4624" to="4650" numLanes="2" spreadType="right" shape="13216362.17359557,3602734.916506503 13216453.363182843,3602855.994678901 13216514.821560513,3602945.610139222 13216552.644583903,3603004.127680778
13216552.691338087,3603004.198711489"/>
    <edge id="8009_op" from="4650" to="4624" numLanes="2" spreadType="right" shape="13216552.691338087,3603004.198711489 13216552.644583903,3603004.127680778 13216514.821560513,3602945.610139222 
13216453.363182843,3602855.994678901 13216362.17359557,3602734.916506503"/>
    <edge id="15207_sa" from="4690" to="4655" numLanes="2" spreadType="right" shape="13216130.281737909,3603387.482558294 13216070.349550456,3603321.713984152 13215853.992327735,3603080.38003126 
13215844.851884345,3603070.300069091"/>
    <edge id="15207_op" from="4655" to="4690" numLanes="2" spreadType="right" shape="13215844.851884345,3603070.300069091 13215853.992327735,3603080.38003126 13216070.349550456,3603321.713984152 
13216130.281737909,3603387.482558294"/>
    <edge id="15217_sa" from="4742" to="4674" numLanes="2" spreadType="right" shape="13216021.136984691,3603620.029172577 13215905.288905699,3603531.623186718 13215768.852954786,3603422.91319313 
13215722.540595714,3603383.230656554 13215654.752480475,3603314.783016828"/>
    <edge id="15217_op" from="4674" to="4742" numLanes="2" spreadType="right" shape="13215654.752480475,3603314.783016828 13215722.540595714,3603383.230656554 13215768.852954786,3603422.91319313 
13215905.288905699,3603531.623186718 13216021.136984691,3603620.029172577"/>
    <edge id="1028_sa" from="4634" to="4732" numLanes="2" spreadType="right" shape="13221068.760553116,3602734.593646755 13221130.737679614,3603068.099396841 13221192.250603836,3603390.797859664 
13221195.073666124,3603491.103263758"/>
    <edge id="1028_op" from="4732" to="4634" numLanes="2" spreadType="right" shape="13221195.073666124,3603491.103263758 13221192.250603836,3603390.797859664 13221130.737679614,3603068.099396841 
13221068.760553116,3602734.593646755"/>
    <edge id="1029_sa" from="4615" to="4663" numLanes="2" spreadType="right" shape="13222721.511904735,3602484.138153784 13222482.281643596,3602698.558807322 13222350.350903802,3602829.32287057 13222279.292778526,3602922.084515976
13222189.415870689,3603050.163416195"/>
    <edge id="1029_op" from="4663" to="4615" numLanes="2" spreadType="right" shape="13222189.415870689,3603050.163416195 13222279.292778526,3602922.084515976 13222350.350903802,3602829.32287057 13222482.281643596,3602698.558807322
13222721.511904735,3602484.138153784"/>
    <edge id="1030_sa" from="4663" to="4745" numLanes="2" spreadType="right" shape="13222189.415870689,3603050.163416195 13222143.84556734,3603115.102820198 13222032.462067837,3603273.052647841 13221914.558251806,3603442.818375089
13221860.688635143,3603532.79421085"/>
    <edge id="1030_op" from="4745" to="4663" numLanes="2" spreadType="right" shape="13221860.688635143,3603532.79421085 13221914.558251806,3603442.818375089 13222032.462067837,3603273.052647841 13222143.84556734,3603115.102820198 
13222189.415870689,3603050.163416195"/>
    <edge id="1031_sa" from="4634" to="4642" numLanes="2" spreadType="right" shape="13221068.760553116,3602734.593646755 13221147.736165859,3602742.765875315 13221514.166533703,3602765.141382418 
13221642.114930028,3602778.738984918"/>
    <edge id="1031_op" from="4642" to="4634" numLanes="2" spreadType="right" shape="13221642.114930028,3602778.738984918 13221514.166533703,3602765.141382418 13221147.736165859,3602742.765875315 
13221068.760553116,3602734.593646755"/>
    <edge id="1032_sa" from="4642" to="4663" numLanes="2" spreadType="right" shape="13221642.114818713,3602778.738468344 13221731.098832916,3602797.75021236 13221802.959794372,3602825.9280391 13221911.012948656,3602887.519703714 
13222189.415870689,3603050.163416195"/>
    <edge id="1032_op" from="4663" to="4642" numLanes="2" spreadType="right" shape="13222189.415870689,3603050.163416195 13221911.012948656,3602887.519703714 13221802.959794372,3602825.9280391 13221731.098832916,3602797.75021236 
13221642.114818713,3602778.738468344"/>
    <edge id="1033_sa" from="4642" to="4563" numLanes="2" spreadType="right" shape="13221642.114818713,3602778.738468344 13221806.514559664,3602165.410206043"/>
    <edge id="1033_op" from="4563" to="4642" numLanes="2" spreadType="right" shape="13221806.514559664,3602165.410206043 13221642.114818713,3602778.738468344"/>
    <edge id="1013_sa" from="4689" to="4694" numLanes="2" spreadType="right" shape="13218640.796408948,3603342.791815343 13218995.813300725,3603350.466963162"/>
    <edge id="1013_op" from="4694" to="4689" numLanes="2" spreadType="right" shape="13218995.813300725,3603350.466963162 13218640.796408948,3603342.791815343"/>
    <edge id="1011_sa" from="4694" to="4697" numLanes="2" spreadType="right" shape="13218995.81352336,3603350.466704854 13219316.406977674,3603365.506278693"/>
    <edge id="1011_op" from="4697" to="4694" numLanes="2" spreadType="right" shape="13219316.406977674,3603365.506278693 13218995.81352336,3603350.466704854"/>
    <edge id="1015_sa" from="4706" to="4724" numLanes="2" spreadType="right" shape="13219793.24735607,3603396.546364482 13219915.171141556,3603404.374202507 13220155.21047275,3603419.781923411 13220170.768484782,3603420.803508947 
13220412.640134795,3603436.687818908 13220591.531669693,3603448.43801123"/>
    <edge id="1015_op" from="4724" to="4706" numLanes="2" spreadType="right" shape="13220591.531669693,3603448.43801123 13220412.640134795,3603436.687818908 13220170.768484782,3603420.803508947 13220155.21047275,3603419.781923411 
13219915.171141556,3603404.374202507 13219793.24735607,3603396.546364482"/>
    <edge id="1008_sa" from="4694" to="4808" numLanes="2" spreadType="right" shape="13218995.81352336,3603350.466704854 13218962.07703848,3603431.280254528 13218930.98773109,3603538.460770674 13218930.166193247,3603542.973356042 
13218914.175148396,3603630.790872094 13218908.622532194,3603699.336630505 13218899.242751898,3603815.091532584"/>
    <edge id="1008_op" from="4808" to="4694" numLanes="2" spreadType="right" shape="13218899.242751898,3603815.091532584 13218908.622532194,3603699.336630505 13218914.175148396,3603630.790872094 
13218930.166193247,3603542.973356042 13218930.98773109,3603538.460770674 13218962.07703848,3603431.280254528 13218995.81352336,3603350.466704854"/>
    <edge id="1016_sa" from="4662" to="4694" numLanes="2" spreadType="right" shape="13219135.479743253,3603080.85916869 13218995.813300725,3603350.466963162"/>
    <edge id="1016_op" from="4694" to="4662" numLanes="2" spreadType="right" shape="13218995.813300725,3603350.466963162 13219135.479743253,3603080.85916869"/>
    <edge id="1014_sa" from="4651" to="4697" numLanes="2" spreadType="right" shape="13219335.786587827,3602980.913575409 13219330.216160504,3603025.128251023 13219316.406977674,3603365.506278693"/>
    <edge id="1014_op" from="4697" to="4651" numLanes="2" spreadType="right" shape="13219316.406977674,3603365.506278693 13219330.216160504,3603025.128251023 13219335.786587827,3602980.913575409"/>
    <edge id="1034_sa" from="4635" to="4651" numLanes="2" spreadType="right" shape="13219838.325293323,3602776.484124542 13219683.456170574,3602838.677872279 13219482.351053927,3602920.396579469 
13219387.829562975,3602959.424779067 13219335.786365198,3602980.913058829"/>
    <edge id="1034_op" from="4651" to="4635" numLanes="2" spreadType="right" shape="13219335.786365198,3602980.913058829 13219387.829562975,3602959.424779067 13219482.351053927,3602920.396579469 
13219683.456170574,3602838.677872279 13219838.325293323,3602776.484124542"/>
    <edge id="8004_sa" from="4662" to="4689" numLanes="2" spreadType="right" shape="13219135.479743253,3603080.85916869 13219100.100850604,3603099.42194841 13218887.732205238,3603212.444317869 13218693.641218383,3603315.031372334 
13218640.796408948,3603342.791815343"/>
    <edge id="8004_op" from="4689" to="4662" numLanes="2" spreadType="right" shape="13218640.796408948,3603342.791815343 13218693.641218383,3603315.031372334 13218887.732205238,3603212.444317869 13219100.100850604,3603099.42194841
13219135.479743253,3603080.85916869"/>
    <edge id="1036_sa" from="4689" to="4819" numLanes="2" spreadType="right" shape="13218640.796408948,3603342.791815343 13218526.754377373,3603402.699501947 13218455.97521874,3603439.900974909 13218342.150594123,3603499.725834465
13218255.739395991,3603551.882681963 13218169.495733695,3603611.214207948 13218120.47196578,3603644.939760739 13218031.296259418,3603709.540195406 13217945.699474687,3603771.547283479 13217893.333784334,3603815.205835042 
13217822.583012179,3603874.191855668"/>
    <edge id="1036_op" from="4819" to="4689" numLanes="2" spreadType="right" shape="13217822.583012179,3603874.191855668 13217893.333784334,3603815.205835042 13217945.699474687,3603771.547283479 
13218031.296259418,3603709.540195406 13218120.47196578,3603644.939760739 13218169.495733695,3603611.214207948 13218255.739395991,3603551.882681963 13218342.150594123,3603499.725834465 13218455.97521874,3603439.900974909 
13218526.754377373,3603402.699501947 13218640.796408948,3603342.791815343"/>
    <edge id="1037_sa" from="4724" to="4732" numLanes="2" spreadType="right" shape="13220591.531669693,3603448.43801123 13220759.371405546,3603461.951133822 13220829.656305645,3603466.505019465 13220902.528270708,3603471.574222012
13220914.450588172,3603472.404667368 13221006.590843895,3603478.814467563 13221109.746163234,3603488.553805707 13221195.073666124,3603491.103263758"/>
    <edge id="1037_op" from="4732" to="4724" numLanes="2" spreadType="right" shape="13221195.073666124,3603491.103263758 13221109.746163234,3603488.553805707 13221006.590843895,3603478.814467563 
13220914.450588172,3603472.404667368 13220902.528270708,3603471.574222012 13220829.656305645,3603466.505019465 13220759.371405546,3603461.951133822 13220591.531669693,3603448.43801123"/>
    <edge id="1038_sa" from="4732" to="4745" numLanes="2" spreadType="right" shape="13221195.073666124,3603491.103263758 13221244.375955401,3603492.575595397 13221297.705783855,3603496.742036592 13221312.910913102,3603499.53301055
13221354.813795825,3603500.991136485 13221437.139012048,3603506.819767405 13221456.416208267,3603508.183613197 13221471.630243074,3603509.260741517 13221504.270230971,3603511.571272486 13221658.731590422,3603520.819858344 
13221831.775512468,3603531.008679999 13221860.688523812,3603532.794856604"/>
    <edge id="1038_op" from="4745" to="4732" numLanes="2" spreadType="right" shape="13221860.688523812,3603532.794856604 13221831.775512468,3603531.008679999 13221658.731590422,3603520.819858344 
13221504.270230971,3603511.571272486 13221471.630243074,3603509.260741517 13221456.416208267,3603508.183613197 13221437.139012048,3603506.819767405 13221354.813795825,3603500.991136485 13221312.910913102,3603499.53301055 
13221297.705783855,3603496.742036592 13221244.375955401,3603492.575595397 13221195.073666124,3603491.103263758"/>
    <edge id="1039_sa" from="4745" to="4758" numLanes="2" spreadType="right" shape="13221860.688635143,3603532.79421085 13221970.748434572,3603539.592662286 13222021.075419765,3603544.032147785 13222170.313223427,3603553.973145032
13222369.340227827,3603569.288193727 13222545.933683157,3603581.855146964"/>
    <edge id="1039_op" from="4758" to="4745" numLanes="2" spreadType="right" shape="13222545.933683157,3603581.855146964 13222369.340227827,3603569.288193727 13222170.313223427,3603553.973145032 
13222021.075419765,3603544.032147785 13221970.748434572,3603539.592662286 13221860.688635143,3603532.79421085"/>
    <edge id="1040_sa" from="4664" to="4635" numLanes="2" spreadType="right" shape="13220522.47239719,3603089.674784014 13220511.20241194,3603071.905371927 13220480.557269322,3603033.724276159 13220454.229096554,3603011.410267898 
13220410.811155561,3602979.459385909 13220262.46680213,3602894.341817337 13220187.125770759,3602851.71739129 13220116.847549833,3602809.512834101 13220050.230626956,3602766.604586519 13220008.247594198,3602748.182175193 
13219975.745642472,3602742.156315727 13219975.074385941,3602742.032337508 13219950.397081224,3602740.681491596 13219942.6414523,3602741.313005584 13219932.873166986,3602742.108532456 13219919.793126814,3602744.226493859 
13219879.04017443,3602760.133170588 13219838.325070672,3602776.484124534"/>
    <edge id="1040_op" from="4635" to="4664" numLanes="2" spreadType="right" shape="13219838.325070672,3602776.484124534 13219879.04017443,3602760.133170588 13219919.793126814,3602744.226493859 13219932.873166986,3602742.108532456
13219942.6414523,3602741.313005584 13219950.397081224,3602740.681491596 13219975.074385941,3602742.032337508 13219975.745642472,3602742.156315727 13220008.247594198,3602748.182175193 13220050.230626956,3602766.604586519 
13220116.847549833,3602809.512834101 13220187.125770759,3602851.71739129 13220262.46680213,3602894.341817337 13220410.811155561,3602979.459385909 13220454.229096554,3603011.410267898 13220480.557269322,3603033.724276159 
13220511.20241194,3603071.905371927 13220522.47239719,3603089.674784014"/>
    <edge id="1041_sa" from="4724" to="4664" numLanes="2" spreadType="right" shape="13220591.531669693,3603448.43801123 13220560.040498944,3603207.943607071 13220556.607405845,3603180.419424827 13220548.939719321,3603146.935111194
13220538.807419267,3603118.066636107 13220529.591278628,3603100.901594283 13220522.47239719,3603089.674784014"/>
    <edge id="1041_op" from="4664" to="4724" numLanes="2" spreadType="right" shape="13220522.47239719,3603089.674784014 13220529.591278628,3603100.901594283 13220538.807419267,3603118.066636107 13220548.939719321,3603146.935111194
13220556.607405845,3603180.419424827 13220560.040498944,3603207.943607071 13220591.531669693,3603448.43801123"/>
    <edge id="15342_sa" from="4493" to="4562" numLanes="2" spreadType="right" shape="13217670.195423508,3601271.607386916 13217707.96278715,3601303.092816269 13218133.796574868,3601675.592401316 
13218241.605048921,3601777.900802694 13218345.222344145,3601876.871924129 13218453.860148406,3601981.191364772 13218516.633209264,3602042.030039767 13218540.932027714,3602065.58070085 13218564.0864818,3602087.413884264 
13218582.988531336,3602105.42851755"/>
    <edge id="15342_op" from="4562" to="4493" numLanes="2" spreadType="right" shape="13218582.988531336,3602105.42851755 13218564.0864818,3602087.413884264 13218540.932027714,3602065.58070085 13218516.633209264,3602042.030039767 
13218453.860148406,3601981.191364772 13218345.222344145,3601876.871924129 13218241.605048921,3601777.900802694 13218133.796574868,3601675.592401316 13217707.96278715,3601303.092816269 13217670.195423508,3601271.607386916"/>
    <edge id="1042_sa" from="4562" to="4651" numLanes="2" spreadType="right" shape="13218582.988531336,3602105.42851755 13218686.507865408,3602203.512527477 13218747.48979566,3602261.400193196 13218779.017701844,3602290.282142024 
13218817.961712504,3602319.68329992 13218891.137579774,3602368.332834587 13218904.68182222,3602377.337772077 13219019.181710865,3602456.0902558 13219039.456329724,3602473.74512855 13219070.94416089,3602501.568619218 
13219123.807560677,3602553.043212457 13219178.914048204,3602616.36298041 13219182.07218216,3602619.990597941 13219241.389886023,3602686.749800704 13219247.882038727,3602695.441154074 13219259.67522558,3602712.018022894 
13219292.241742613,3602766.800885759 13219307.050574472,3602811.697962432 13219309.67660126,3602819.65844507 13219318.660084167,3602863.501890519 13219327.82390465,3602916.696938559 13219330.09704865,3602929.893065701 
13219335.786587827,3602980.913575409"/>
    <edge id="1042_op" from="4651" to="4562" numLanes="2" spreadType="right" shape="13219335.786587827,3602980.913575409 13219330.09704865,3602929.893065701 13219327.82390465,3602916.696938559 13219318.660084167,3602863.501890519 
13219309.67660126,3602819.65844507 13219307.050574472,3602811.697962432 13219292.241742613,3602766.800885759 13219259.67522558,3602712.018022894 13219247.882038727,3602695.441154074 13219241.389886023,3602686.749800704 
13219182.07218216,3602619.990597941 13219178.914048204,3602616.36298041 13219123.807560677,3602553.043212457 13219070.94416089,3602501.568619218 13219039.456329724,3602473.74512855 13219019.181710865,3602456.0902558 
13218904.68182222,3602377.337772077 13218891.137579774,3602368.332834587 13218817.961712504,3602319.68329992 13218779.017701844,3602290.282142024 13218747.48979566,3602261.400193196 13218686.507865408,3602203.512527477 
13218582.988531336,3602105.42851755"/>
    <edge id="1079_sa" from="5055" to="4972" numLanes="2" spreadType="right" shape="13215520.657801101,3605230.345048116 13215512.100115247,3605093.334907191 13215510.775747273,3604982.688617656 
13215512.571887258,3604892.057047604 13215527.206058826,3604814.547716798 13215539.384299805,3604756.961958347 13215556.497890407,3604697.796658428"/>
    <edge id="1079_op" from="4972" to="5055" numLanes="2" spreadType="right" shape="13215556.497890407,3604697.796658428 13215539.384299805,3604756.961958347 13215527.206058826,3604814.547716798 
13215512.571887258,3604892.057047604 13215510.775747273,3604982.688617656 13215512.100115247,3605093.334907191 13215520.657801101,3605230.345048116"/>
    <edge id="1218_sa" from="4899" to="4794" numLanes="2" spreadType="right" shape="13215721.085204693,3604317.771640846 13215931.483940348,3603826.523978879"/>
    <edge id="1218_op" from="4794" to="4899" numLanes="2" spreadType="right" shape="13215931.483940348,3603826.523978879 13215721.085204693,3604317.771640846"/>
    <edge id="1214_sa" from="4630" to="4616" numLanes="2" spreadType="right" shape="13217061.76716936,3602769.000987198 13217138.21672022,3602735.021500501 13217447.077768119,3602602.925436953 
13217447.988806827,3602602.535814012"/>
    <edge id="1214_op" from="4616" to="4630" numLanes="2" spreadType="right" shape="13217447.988806827,3602602.535814012 13217447.077768119,3602602.925436953 13217138.21672022,3602735.021500501 
13217061.76716936,3602769.000987198"/>
    <edge id="1216_sa" from="4589" to="4562" numLanes="2" spreadType="right" shape="13218023.079322519,3602363.446176893 13218030.187072007,3602360.332612452 13218293.268424599,3602234.965489196 
13218582.988531336,3602105.42851755"/>
    <edge id="1216_op" from="4562" to="4589" numLanes="2" spreadType="right" shape="13218582.988531336,3602105.42851755 13218293.268424599,3602234.965489196 13218030.187072007,3602360.332612452 
13218023.079322519,3602363.446176893"/>
    <edge id="1043_sa" from="4664" to="4634" numLanes="2" spreadType="right" shape="13220522.47239719,3603089.674784014 13220656.059125727,3602930.258548774 13220768.130023083,3602814.481031293 13220819.765568888,3602776.881889108
13220879.800170273,3602750.684986964 13220942.143537896,3602737.995297486 13221022.440512994,3602732.368497604 13221068.760553116,3602734.593646755"/>
    <edge id="1043_op" from="4634" to="4664" numLanes="2" spreadType="right" shape="13221068.760553116,3602734.593646755 13221022.440512994,3602732.368497604 13220942.143537896,3602737.995297486 
13220879.800170273,3602750.684986964 13220819.765568888,3602776.881889108 13220768.130023083,3602814.481031293 13220656.059125727,3602930.258548774 13220522.47239719,3603089.674784014"/>
    <edge id="1106_sa" from="4863" to="4881" numLanes="2" spreadType="right" shape="13220674.59493414,3604119.093342558 13220757.078224037,3604120.337139236 13220892.36034842,3604131.230375357 13221038.152145926,3604142.968319576 
13221170.879487993,3604148.868294036"/>
    <edge id="1106_op" from="4881" to="4863" numLanes="2" spreadType="right" shape="13221170.879487993,3604148.868294036 13221038.152145926,3604142.968319576 13220892.36034842,3604131.230375357 13220757.078224037,3604120.337139236
13220674.59493414,3604119.093342558"/>
    <edge id="1018_sa" from="4835" to="4854" numLanes="2" spreadType="right" shape="13219787.137140546,3603980.866085642 13219913.936608411,3604003.45322338 13220022.37793377,3604022.769101044 13220064.316772696,3604031.583458411 
13220134.416882437,3604046.316216642 13220248.053043155,3604071.157928381"/>
    <edge id="1018_op" from="4854" to="4835" numLanes="2" spreadType="right" shape="13220248.053043155,3604071.157928381 13220134.416882437,3604046.316216642 13220064.316772696,3604031.583458411 13220022.37793377,3604022.769101044
13219913.936608411,3604003.45322338 13219787.137140546,3603980.866085642"/>
    <edge id="1006_sa" from="4808" to="4806" numLanes="2" spreadType="right" shape="13218899.242751898,3603815.091532584 13219307.879904678,3603807.54369836"/>
    <edge id="1006_op" from="4806" to="4808" numLanes="2" spreadType="right" shape="13219307.879904678,3603807.54369836 13218899.242751898,3603815.091532584"/>
    <edge id="1201_sa" from="4950" to="5021" numLanes="2" spreadType="right" shape="13218616.381484266,3604561.065410793 13218611.10794604,3604574.247426436 13218610.914918035,3604574.738117967 13218597.38548109,3604609.416070636 
13218544.458072592,3604745.060159591 13218506.939619327,3604841.212878876 13218474.05406064,3604938.966736241"/>
    <edge id="1201_op" from="5021" to="4950" numLanes="2" spreadType="right" shape="13218474.05406064,3604938.966736241 13218506.939619327,3604841.212878876 13218544.458072592,3604745.060159591 13218597.38548109,3604609.416070636 
13218610.914918035,3604574.738117967 13218611.10794604,3604574.247426436 13218616.381484266,3604561.065410793"/>
    <edge id="1060_sa" from="5021" to="5082" numLanes="2" spreadType="right" shape="13218474.05406064,3604938.966736241 13218460.89520627,3605201.761379227 13218461.745909823,3605327.67911205 13218462.65939756,3605462.857111375"/>
    <edge id="1060_op" from="5082" to="5021" numLanes="2" spreadType="right" shape="13218462.65939756,3605462.857111375 13218461.745909823,3605327.67911205 13218460.89520627,3605201.761379227 13218474.05406064,3604938.966736241"/>
    <edge id="1003_sa" from="4808" to="4893" numLanes="2" spreadType="right" shape="13218899.242751898,3603815.091532584 13218803.371066844,3604083.357813585 13218740.822871359,3604250.003960255"/>
    <edge id="1003_op" from="4893" to="4808" numLanes="2" spreadType="right" shape="13218740.822871359,3604250.003960255 13218803.371066844,3604083.357813585 13218899.242751898,3603815.091532584"/>
    <edge id="1021_sa" from="4961" to="4944" numLanes="2" spreadType="right" shape="13220081.112880092,3604598.946064824 13220024.6215781,3604591.318956697 13219819.457530178,3604563.617288365 13219804.977090813,3604561.66175729 
13219667.333880035,3604542.676072589"/>
    <edge id="1021_op" from="4944" to="4961" numLanes="2" spreadType="right" shape="13219667.333880035,3604542.676072589 13219804.977090813,3604561.66175729 13219819.457530178,3604563.617288365 13220024.6215781,3604591.318956697 
13220081.112880092,3604598.946064824"/>
    <edge id="1107_sa" from="4973" to="4961" numLanes="2" spreadType="right" shape="13220728.559283689,3604638.796974932 13220679.560896624,3604646.82193813 13220424.778412068,3604637.695205892 13220262.216333276,3604628.355360017
13220193.437585888,3604624.402945021 13220183.091552414,3604624.036119641 13220161.939735968,3604623.285677615 13220081.112880092,3604598.946064824"/>
    <edge id="1107_op" from="4961" to="4973" numLanes="2" spreadType="right" shape="13220081.112880092,3604598.946064824 13220161.939735968,3604623.285677615 13220183.091552414,3604624.036119641 
13220193.437585888,3604624.402945021 13220262.216333276,3604628.355360017 13220424.778412068,3604637.695205892 13220679.560896624,3604646.82193813 13220728.559283689,3604638.796974932"/>
    <edge id="1108_sa" from="5132" to="5061" numLanes="2" spreadType="right" shape="13219303.17821467,3606068.313234055 13219366.800531926,3605688.892753092 13219401.4970361,3605486.580869166 13219405.193622429,3605473.808380489 
13219473.611472024,3605237.408597391"/>