<routes>
    <vehicle id="veh_864997" depart="0.0" departLane="random">
        <route edges="21136_sa 1049_op 1033_op 1031_op"/>
    </vehicle>
    <vehicle id="veh_858762" depart="0.0029411764705882353" departLane="random">
        <route edges="21233_sa 21232_sa 21187_op 21186_op 21185_op 21184_op 1229_op 1228_op 1073_sa"/>
    </vehicle>
    <vehicle id="veh_1235161" depart="0.0058823529411764705" departLane="random">
        <route edges="1056_sa 1025_sa 1214_sa 21207_sa"/>
    </vehicle>
    <vehicle id="veh_246458" depart="0.008823529411764706" departLane="random">
        <route edges="21248_sa 21137_sa 30202_op 30202_sa 30202_op 21243_sa 21242_sa 21215_sa 21216_sa 30031_op 30030_op 30030_sa"/>
    </vehicle>
    <vehicle id="veh_1820551" depart="0.011764705882352941" departLane="random">
        <route edges="21246_op"/>
    </vehicle>
    <vehicle id="veh_856728" depart="0.014705882352941176" departLane="random">
        <route edges="1004_op 1009_op 1009_sa"/>
    </vehicle>
    <vehicle id="veh_246782" depart="0.01764705882352941" departLane="random">
        <route edges="30193_op"/>
    </vehicle>
    <vehicle id="veh_1553783" depart="0.023529411764705882" departLane="random">
        <route edges="1049_sa 1124_sa 1213_op 1212_op 1212_sa"/>
    </vehicle>
    <vehicle id="veh_1381460" depart="0.026470588235294117" departLane="random">
        <route edges="30144_sa 30115_op 30113_op 30123_op 30095_op 30111_sa 30106_op"/>
    </vehicle>
    <vehicle id="veh_581988" depart="0.029411764705882353" departLane="random">
        <route edges="1041_sa"/>
    </vehicle>
    <vehicle id="veh_69916" depart="0.03235294117647059" departLane="random">
        <route edges="1037_op 1015_op 1012_op 1011_op 1013_op 1036_sa 8002_sa 8003_sa 1073_sa 1079_sa 1079_op"/>
    </vehicle>
    <vehicle id="veh_168851" depart="0.03823529411764706" departLane="random">
        <route edges="1018_op 1010_op 1012_op 1014_op 8005_sa 8004_sa 1053_op 1054_sa 1026_sa 30191_sa 1027_op 1220_op 15207_sa 21192_sa 21193_sa 21228_op"/>
    </vehicle>
    <vehicle id="veh_1538528" depart="0.05" departLane="random">
        <route edges="15342_op 21214_sa 21231_sa 21231_op 21215_sa 21215_op"/>
    </vehicle>
    <vehicle id="veh_1417839" depart="0.052941176470588235" departLane="random">
        <route edges="1206_op 21144_sa 21143_op 30016_op 30049_sa 30019_op"/>
    </vehicle>
    <vehicle id="veh_442671" depart="0.058823529411764705" departLane="random">
        <route edges="15363_op 21243_sa 21242_sa 21214_op 21214_sa 21231_sa 21230_sa 21229_sa 21228_sa 21227_sa 21160_sa 21165_sa 21166_sa"/>
    </vehicle>
    <vehicle id="veh_132779" depart="0.06470588235294118" departLane="random">
        <route edges="1218_sa 1221_sa 1222_sa 1220_sa 1047_sa 1214_sa 1215_sa 1217_sa 1216_sa 1130_sa 1131_sa 21246_op"/>
    </vehicle>
    <vehicle id="veh_796209" depart="0.07941176470588235" departLane="random">
        <route edges="1005_op"/>
    </vehicle>
    <vehicle id="veh_41325" depart="0.08529411764705883" departLane="random">
        <route edges="30097_op 30096_op 30101_sa 30112_sa 30104_sa 30028_sa 30092_sa 30029_sa 21188_op 21187_op 21186_op 21185_op 21184_op 1229_op 1228_op 30187_sa 30186_op 30189_op 30183_op 1081_sa 1066_sa 1076_sa 1223_sa 1224_sa 1224_op"/>
    </vehicle>
    <vehicle id="veh_739096" depart="0.08823529411764706" departLane="random">
        <route edges="1006_op 1008_op 1011_sa 1012_sa 1015_sa 1041_sa 1041_op"/>
    </vehicle>
    <vehicle id="veh_502483" depart="0.09705882352941177" departLane="random">
        <route edges="1218_sa 1221_sa 1222_sa 1220_sa 1047_sa 1214_sa 1215_sa 1217_sa 1216_sa 1130_sa 1131_sa 1048_sa 1049_sa 21136_op 21248_sa 21137_sa 21246_sa 1131_op"/>
    </vehicle>
    <vehicle id="veh_773442" depart="0.10294117647058823" departLane="random">
        <route edges="1044_sa 1043_op 1040_sa 1034_sa 8005_sa 8004_sa 1036_sa"/>
    </vehicle>
    <vehicle id="veh_436141" depart="0.10588235294117647" departLane="random">
        <route edges="1048_op 1131_op 1045_sa 1034_sa 8005_sa 8004_sa 1036_sa 1036_op 8004_op 8005_op 1034_op 1045_op 1131_sa 1048_sa 1049_sa"/>
    </vehicle>
    <vehicle id="veh_1777360" depart="0.10882352941176471" departLane="random">
        <route edges="1025_sa"/>
    </vehicle>
    <vehicle id="veh_38390" depart="0.11470588235294117" departLane="random">
        <route edges="1023_op 1004_op 1009_op 1014_op 1042_op 1042_sa 8005_sa 1016_sa 1008_sa 1003_sa 1202_sa 1203_sa 1201_sa 1060_sa 1063_sa 1065_op"/>
    </vehicle>
    <vehicle id="veh_38052" depart="0.12352941176470589" departLane="random">
        <route edges="21266_sa"/>
    </vehicle>
    <vehicle id="veh_153825" depart="0.12941176470588237" departLane="random">
        <route edges="21216_op 21215_op 21231_sa 21230_sa 21204_op 21203_op 8008_op 1025_op 1025_sa 1047_op"/>
    </vehicle>
    <vehicle id="veh_105808" depart="0.1323529411764706" departLane="random">
        <route edges="1001_sa"/>
    </vehicle>
    <vehicle id="veh_434097" depart="0.13529411764705881" departLane="random">
        <route edges="30193_op 1067_op 30188_op 30187_op 1228_sa 1229_sa 21184_sa 21185_sa 21186_sa 21227_op 21228_op 21138_sa"/>
    </vehicle>
    <vehicle id="veh_1741877" depart="0.13823529411764707" departLane="random">
        <route edges="21266_sa 21266_op"/>
    </vehicle>
    <vehicle id="veh_75243" depart="0.1411764705882353" departLane="random">
        <route edges="21146_op 21156_op 21161_sa 21162_sa 21163_sa"/>
    </vehicle>
    <vehicle id="veh_173139" depart="0.14411764705882352" departLane="random">
        <route edges="1215_op 1214_op 1214_sa"/>
    </vehicle>
    <vehicle id="veh_1004193" depart="0.15" departLane="random">
        <route edges="1021_sa 1005_op 1010_op 1012_op 1014_op 1034_op 1045_op 15363_op 21245_op 30062_sa 30024_sa"/>
    </vehicle>
    <vehicle id="veh_201993" depart="0.15294117647058825" departLane="random">
        <route edges="1204_op 1204_sa"/>
    </vehicle>
    <vehicle id="veh_320578" depart="0.1588235294117647" departLane="random">
        <route edges="21219_op 21220_op 21220_sa 21219_sa 21218_sa 21217_sa 21217_op"/>
    </vehicle>
    <vehicle id="veh_535727" depart="0.1676470588235294" departLane="random">
        <route edges="1004_op 1009_op 1012_sa 1015_sa 1037_sa 1038_sa 1039_sa 1039_op"/>
    </vehicle>
    <vehicle id="veh_180609" depart="0.17058823529411765" departLane="random">
        <route edges="21216_op 21215_op 21242_op 21242_sa 21231_sa 21230_sa"/>
    </vehicle>
    <vehicle id="veh_348564" depart="0.17647058823529413" departLane="random">
        <route edges="30062_sa"/>
    </vehicle>
    <vehicle id="veh_121680" depart="0.17941176470588235" departLane="random">
        <route edges="21138_op 21198_op 21197_op 8009_sa 1027_sa 30198_sa 1228_op 30187_sa 30188_sa 1067_sa 30193_sa"/>
    </vehicle>
    <vehicle id="veh_220115" depart="0.18235294117647058" departLane="random">
        <route edges="1044_op 1131_op 1130_op 1042_sa 1042_op 1130_sa 1131_sa 1131_op"/>
    </vehicle>
    <vehicle id="veh_180977" depart="0.18823529411764706" departLane="random">
        <route edges="1029_op 1049_op 1048_op 1131_op"/>
    </vehicle>
    <vehicle id="veh_592934" depart="0.19411764705882353" departLane="random">
        <route edges="21216_op 21215_op 21214_op 21212_op 21211_op 1217_sa 1052_sa 1053_sa 8004_op 8005_op 1014_sa 1009_sa 1004_sa 1023_sa"/>
    </vehicle>
    <vehicle id="veh_177320" depart="0.19705882352941176" departLane="random">
        <route edges="1215_op"/>
    </vehicle>
    <vehicle id="veh_181193" depart="0.2" departLane="random">
        <route edges="1022_op 1002_sa 1004_op 1009_op 1011_op 1013_op 1053_op 1054_sa 1026_sa 1056_op"/>
    </vehicle>
    <vehicle id="veh_1289109" depart="0.20294117647058824" departLane="random">
        <route edges="21247_sa 21246_sa 1044_sa 1028_sa 1028_op 1044_op 1131_op 15363_op 21243_sa 21242_sa 21215_sa 21216_sa 30031_op 30030_op 30030_sa"/>
    </vehicle>
    <vehicle id="veh_78002" depart="0.20588235294117646" departLane="random">
        <route edges="21176_sa 21161_op 21156_sa 21145_op 1204_op 1205_op 30184_op 30183_op 1081_sa 1066_sa 1064_op 30200_sa"/>
    </vehicle>
    <vehicle id="veh_1289912" depart="0.21176470588235294" departLane="random">
        <route edges="21216_op 21237_sa 21236_sa 21235_sa 21234_sa 21233_sa 21232_sa 21173_op 21174_op 21166_sa 21179_op"/>
    </vehicle>
    <vehicle id="veh_59018" depart="0.21470588235294116" departLane="random">
        <route edges="21263_op 8006_op 15809_op 1113_op 1039_op 1038_op 1037_op 1015_op 1012_op 1011_op 1008_sa 1003_sa"/>
    </vehicle>
    <vehicle id="veh_315817" depart="0.21764705882352942" departLane="random">
        <route edges="21187_op 21227_op 21228_op 21229_op 21204_op 21225_op 21226_op 21212_sa 15342_sa 1130_sa 15363_op 21245_op 30062_sa"/>
    </vehicle>
    <vehicle id="veh_1697136" depart="0.22058823529411764" departLane="random">
        <route edges="1032_op"/>
    </vehicle>
    <vehicle id="veh_979207" depart="0.2235294117647059" departLane="random">
        <route edges="1216_sa 1130_sa 1131_sa 21246_op 21137_op 21137_sa 21246_sa"/>
    </vehicle>
    <vehicle id="veh_1294791" depart="0.22941176470588234" departLane="random">
        <route edges="1127_op 1041_sa 1040_sa 1045_op 1045_sa 1045_op 1130_op 1216_op 1217_op 21211_sa"/>
    </vehicle>
    <vehicle id="veh_119612" depart="0.2323529411764706" departLane="random">
        <route edges="1015_op 1012_op 1011_op 1013_op 1036_sa 8002_sa 8003_sa 1073_sa 21145_sa"/>
    </vehicle>
    <vehicle id="veh_88140" depart="0.23529411764705882" departLane="random">
        <route edges="30024_op 30062_op 21245_sa 15363_sa 1130_op 1042_sa 1014_sa 1009_sa 1004_sa 1023_sa"/>
    </vehicle>
    <vehicle id="veh_475184" depart="0.23823529411764705" departLane="random">
        <route edges="1053_sa"/>
    </vehicle>
    <vehicle id="veh_1220328" depart="0.2411764705882353" departLane="random">
        <route edges="21173_sa 21187_op 21227_op 21228_op 21229_op 21230_op 21209_sa 21237_op 21215_op 21214_op 15342_sa 1130_sa 1131_sa 1048_sa 1033_op 1032_sa 1032_op 1033_sa 1048_op 1131_op 1130_op 1216_op"/>
    </vehicle>
    <vehicle id="veh_213702" depart="0.24411764705882352" departLane="random">
        <route edges="15342_op 21214_sa 21231_sa 21230_sa"/>
    </vehicle>
    <vehicle id="veh_1094197" depart="0.24705882352941178" departLane="random">
        <route edges="21161_sa 21175_sa 21174_sa 21171_op"/>
    </vehicle>
    <vehicle id="veh_630088" depart="0.25" departLane="random">
        <route edges="1034_op 1040_op 1043_sa 1044_op 1131_op 15363_op 21243_sa 21242_sa 21215_sa 21216_sa 30031_op 30030_op 30030_sa"/>
    </vehicle>
    <vehicle id="veh_204084" depart="0.25588235294117645" departLane="random">
        <route edges="1047_sa 1214_sa 1215_sa 1217_sa 1216_sa 1130_sa 1131_sa 1048_sa 1049_sa 1124_sa 1213_op"/>
    </vehicle>
    <vehicle id="veh_588894" depart="0.26176470588235295" departLane="random">
        <route edges="1124_op 1049_op 1048_op 1131_op 1130_op 1216_op 1217_op 1215_op 1214_op 1047_op 8009_op"/>
    </vehicle>
    <vehicle id="veh_974961" depart="0.2647058823529412" departLane="random">
        <route edges="30019_sa 30020_sa 30164_op 21143_sa 21144_op 1206_sa 1207_sa 1230_sa 1231_sa 1064_op 1063_op 30192_sa"/>
    </vehicle>
    <vehicle id="veh_504433" depart="0.27647058823529413" departLane="random">
        <route edges="21197_op"/>
    </vehicle>
    <vehicle id="veh_299604" depart="0.28823529411764703" departLane="random">
        <route edges="21144_op 1206_sa 1207_sa 1230_sa 1231_sa 1064_op 1063_op"/>
    </vehicle>
    <vehicle id="veh_506405" depart="0.2911764705882353" departLane="random">
        <route edges="30099_op"/>
    </vehicle>
    <vehicle id="veh_642600" depart="0.3029411764705882" departLane="random">
        <route edges="21198_sa 21138_sa 21199_sa 21234_sa 21233_sa 21232_sa 21187_op 21186_op 21185_op 21184_op 1229_op 1228_op 8003_op 8002_op 1036_op 1013_sa 1011_sa 1011_op"/>
    </vehicle>
    <vehicle id="veh_1309788" depart="0.3058823529411765" departLane="random">
        <route edges="21228_op 21229_op 21230_op"/>
    </vehicle>
    <vehicle id="veh_22273" depart="0.3088235294117647" departLane="random">
        <route edges="1058_sa 1125_op 1125_sa 1058_op 1122_op"/>
    </vehicle>
    <vehicle id="veh_1313738" depart="0.31176470588235294" departLane="random">
        <route edges="1047_sa 1025_op 1026_op 1054_op 1054_sa 1026_sa 1025_sa 1214_sa"/>
    </vehicle>
    <vehicle id="veh_22449" depart="0.31470588235294117" departLane="random">
        <route edges="21208_sa"/>
    </vehicle>
    <vehicle id="veh_1634135" depart="0.3176470588235294" departLane="random">
        <route edges="21279_op 21279_sa"/>
    </vehicle>
    <vehicle id="veh_1319003" depart="0.3205882352941177" departLane="random">
        <route edges="21247_sa 30202_op 21243_sa 21242_sa 21215_sa 21216_sa"/>
    </vehicle>
    <vehicle id="veh_549354" depart="0.3235294117647059" departLane="random">
        <route edges="30024_op 30062_op 21245_sa 21243_sa 21242_sa 21214_op 21214_sa 21231_sa 21230_sa 21229_sa 21228_sa 21227_sa 21160_sa 21159_sa 21156_sa 21145_op 21145_sa"/>
    </vehicle>
    <vehicle id="veh_1788164" depart="0.3264705882352941" departLane="random">
        <route edges="8006_op"/>
    </vehicle>
    <vehicle id="veh_1323324" depart="0.32941176470588235" departLane="random">
        <route edges="30097_op"/>
    </vehicle>
    <vehicle id="veh_183242" depart="0.3323529411764706" departLane="random">
        <route edges="21145_op 1073_op 8003_op 8002_op 1036_op 8004_op 8005_op 1034_op 1040_op"/>
    </vehicle>
    <vehicle id="veh_1626854" depart="0.3352941176470588" departLane="random">
        <route edges="30030_op 30030_sa"/>
    </vehicle>
    <vehicle id="veh_1324230" depart="0.3382352941176471" departLane="random">
        <route edges="1025_sa 1214_sa 1215_sa 21211_sa 21212_sa 21214_sa 21215_sa 21216_sa 30031_op 30030_op 30030_sa"/>
    </vehicle>
    <vehicle id="veh_663487" depart="0.34705882352941175" departLane="random">
        <route edges="1014_sa 1009_sa 1004_sa 1023_sa 1227_sa 1226_sa 30192_op 1063_sa 1064_sa"/>
    </vehicle>
    <vehicle id="veh_232946" depart="0.3588235294117647" departLane="random">
        <route edges="15342_op"/>
    </vehicle>
    <vehicle id="veh_1616160" depart="0.36176470588235293" departLane="random">
        <route edges="21163_op"/>
    </vehicle>
    <vehicle id="veh_677273" depart="0.36764705882352944" departLane="random">
        <route edges="30193_op 1067_op 30188_op"/>
    </vehicle>
    <vehicle id="veh_1609969" depart="0.37058823529411766" departLane="random">
        <route edges="21215_op 21215_sa"/>
    </vehicle>
    <vehicle id="veh_52913" depart="0.3735294117647059" departLane="random">
        <route edges="1201_sa 1067_op 30188_op 30187_op 1073_sa 21145_sa"/>
    </vehicle>
    <vehicle id="veh_1824710" depart="0.3764705882352941" departLane="random">
        <route edges="1100_sa 1208_sa 1209_sa 1039_op 1038_op 1037_op 1015_op 1012_op 1014_op 1042_op 15342_op 21214_sa 21231_sa 21231_op 21215_sa 21216_sa 30031_op 30030_op 30030_sa"/>
    </vehicle>
    <vehicle id="veh_1221273" depart="0.37941176470588234" departLane="random">
        <route edges="21207_op 1214_op 1025_op 1026_op"/>
    </vehicle>
    <vehicle id="veh_291704" depart="0.38235294117647056" departLane="random">
        <route edges="30069_sa 30023_op 30169_op 30024_op 30062_op 21245_sa 15363_sa"/>
    </vehicle>
    <vehicle id="veh_1334356" depart="0.38529411764705884" departLane="random">
        <route edges="1004_op 1009_op 1014_op 1042_op 15342_op 21214_sa 21231_sa 21231_op 21215_sa 21216_sa 30031_op 30030_op 30030_sa"/>
    </vehicle>
    <vehicle id="veh_94357" depart="0.38823529411764707" departLane="random">
        <route edges="21216_op 21215_op 21242_op 21242_sa 21214_op 15342_sa 1042_sa 1034_op 1040_op 1041_op 1037_sa 1038_sa 1039_sa 1113_sa"/>
    </vehicle>
    <vehicle id="veh_1786735" depart="0.3911764705882353" departLane="random">
        <route edges="1073_sa"/>
    </vehicle>
    <vehicle id="veh_907816" depart="0.3941176470588235" departLane="random">
        <route edges="21266_sa 21266_op"/>
    </vehicle>
    <vehicle id="veh_679984" depart="0.39705882352941174" departLane="random">
        <route edges="21144_op 1206_sa 1207_sa 1230_sa 1231_sa 1064_op 1063_op"/>
    </vehicle>
    <vehicle id="veh_288771" depart="0.4" departLane="random">
        <route edges="1023_op 1004_op 1009_op 1014_op 1034_op 1040_op"/>
    </vehicle>
    <vehicle id="veh_288330" depart="0.4117647058823529" departLane="random">
        <route edges="21145_op 1073_op 8003_op 8002_op 1036_op 1013_sa 1013_op 1013_sa 1011_sa 1012_sa 1010_sa 1007_op"/>
    </vehicle>
    <vehicle id="veh_71794" depart="0.4147058823529412" departLane="random">
        <route edges="21252_sa"/>
    </vehicle>
    <vehicle id="veh_287339" depart="0.4176470588235294" departLane="random">
        <route edges="21138_op 21229_op 21230_op 21231_op 21214_op 15342_sa 1130_sa 1131_sa 1048_sa 1049_sa 1124_sa"/>
    </vehicle>
    <vehicle id="veh_695483" depart="0.4235294117647059" departLane="random">
        <route edges="30145_sa 30040_sa 30122_sa 30097_op 30096_op"/>
    </vehicle>
    <vehicle id="veh_235292" depart="0.4264705882352941" departLane="random">
        <route edges="1216_sa 1130_sa 1131_sa 1048_sa"/>
    </vehicle>
    <vehicle id="veh_1589755" depart="0.4294117647058823" departLane="random">
        <route edges="1043_op 1040_sa 1045_op 1045_sa 1034_sa 1042_op 15342_op 21212_op"/>
    </vehicle>
    <vehicle id="veh_454665" depart="0.4323529411764706" departLane="random">
        <route edges="30195_op 30194_op 1098_op 1097_op 1127_op 1037_sa 1038_sa"/>
    </vehicle>
    <vehicle id="veh_1766713" depart="0.43823529411764706" departLane="random">
        <route edges="30067_sa 30068_sa 30069_sa 30069_op"/>
    </vehicle>
    <vehicle id="veh_1099937" depart="0.4441176470588235" departLane="random">
        <route edges="1036_op 8004_op 8005_op 1034_op"/>
    </vehicle>
    <vehicle id="veh_541023" depart="0.45" departLane="random">
        <route edges="21243_op 30202_sa 21246_sa 1044_sa 1043_op"/>
    </vehicle>
    <vehicle id="veh_1357287" depart="0.45588235294117646" departLane="random">
        <route edges="21266_sa 21265_sa 21257_sa 21263_op 8006_op 15809_op 1113_op 1039_op 1038_op 1037_op 1015_op 1012_op 1011_op 1013_op 1036_sa 8002_sa 8003_sa 1073_sa 21145_sa 21146_sa"/>
    </vehicle>
    <vehicle id="veh_48956" depart="0.46176470588235297" departLane="random">
        <route edges="21207_op 1214_op 1047_op"/>
    </vehicle>
    <vehicle id="veh_559401" depart="0.4647058823529412" departLane="random">
        <route edges="1217_op 1215_op 21207_sa 21208_sa 21230_sa 21230_op 21208_op"/>
    </vehicle>
    <vehicle id="veh_704320" depart="0.4676470588235294" departLane="random">
        <route edges="1228_op 1228_sa"/>
    </vehicle>
    <vehicle id="veh_363016" depart="0.47058823529411764" departLane="random">
        <route edges="1043_op 1040_sa 1034_sa 8005_sa 8004_sa 8004_op 8005_op 1034_op 1040_op 1043_sa 1043_op"/>
    </vehicle>
    <vehicle id="veh_283199" depart="0.4764705882352941" departLane="random">
        <route edges="1008_op 1013_op 1053_op 1054_sa 1026_sa 1025_sa 8008_sa"/>
    </vehicle>
    <vehicle id="veh_133669" depart="0.4823529411764706" departLane="random">
        <route edges="21233_sa 21232_sa 21188_sa"/>
    </vehicle>
    <vehicle id="veh_709543" depart="0.4852941176470588" departLane="random">
        <route edges="21184_op 1229_op 1228_op 8003_op 8002_op 1036_op 1013_sa 1011_sa 1009_sa 1007_sa"/>
    </vehicle>
    <vehicle id="veh_349942" depart="0.48823529411764705" departLane="random">
        <route edges="21251_sa 8006_op 15809_op 1113_op 1039_op 1038_op 1037_op 1041_sa 1040_sa 1034_sa 8005_sa 8004_sa 1053_op"/>
    </vehicle>
    <vehicle id="veh_408854" depart="0.49117647058823527" departLane="random">
        <route edges="21187_op 21227_op 21228_op 21229_op 21230_op 21231_op 21242_op 21243_op 30202_sa"/>
    </vehicle>
    <vehicle id="veh_449349" depart="0.49411764705882355" departLane="random">
        <route edges="1043_op 1040_sa 1034_sa 8005_sa"/>
    </vehicle>
    <vehicle id="veh_711996" depart="0.4970588235294118" departLane="random">
        <route edges="1043_op 1043_sa"/>
    </vehicle>
    <vehicle id="veh_1578369" depart="0.5" departLane="random">
        <route edges="30127_op 30128_op 30148_sa 30149_sa 30146_op 30146_sa 30149_op 30148_op 30128_sa 30126_op"/>
    </vehicle>
    <vehicle id="veh_97112" depart="0.5058823529411764" departLane="random">
        <route edges="21176_sa 21161_op 15641_op 1219_sa 1218_sa 1229_op 1228_op 8003_op"/>
    </vehicle>
    <vehicle id="veh_1365616" depart="0.5088235294117647" departLane="random">
        <route edges="1023_op 1004_op 1009_op 1014_op 1042_op 15342_op 21214_sa 21215_sa 21216_sa"/>
    </vehicle>
    <vehicle id="veh_550821" depart="0.5117647058823529" departLane="random">
        <route edges="21231_op 21215_sa 21216_sa 30031_op 30030_op 30030_sa"/>
    </vehicle>
    <vehicle id="veh_719693" depart="0.5176470588235295" departLane="random">
        <route edges="1202_op 1003_op 1006_sa 1007_sa 1018_sa 1059_sa 1127_op 1037_sa 1038_sa 1039_sa 1039_op"/>
    </vehicle>
    <vehicle id="veh_1370602" depart="0.5205882352941177" departLane="random">
        <route edges="30053_sa 30015_sa 30016_sa 21143_sa 21144_op 1206_sa 1207_sa 1230_sa 1231_sa 1076_sa 1223_sa"/>
    </vehicle>
    <vehicle id="veh_72715" depart="0.5235294117647059" departLane="random">
        <route edges="30144_sa 30115_op 30113_op 30123_op 30101_sa"/>
    </vehicle>
    <vehicle id="veh_1570274" depart="0.5264705882352941" departLane="random">
        <route edges="15342_sa 1042_sa 1034_op 1034_sa"/>
    </vehicle>
    <vehicle id="veh_342566" depart="0.5323529411764706" departLane="random">
        <route edges="1004_op 1006_op 1008_op 1013_op 1053_op 1054_sa 1026_sa 30191_sa 1027_op"/>
    </vehicle>
    <vehicle id="veh_1375728" depart="0.5352941176470588" departLane="random">
        <route edges="21205_sa 21236_op 21236_sa 21205_op 21139_op 21204_op 21203_op 21220_sa 8009_sa 1027_sa 30198_sa 1228_op 30187_sa 30188_sa 1067_sa 30193_sa 30193_op 1067_op 30188_op 30187_op 1228_sa 1229_sa 1221_sa 1222_sa 1220_sa 8009_op 
21220_op"/>
    </vehicle>
    <vehicle id="veh_72746" depart="0.538235294117647" departLane="random">
        <route edges="1204_sa 1079_sa 1219_sa 1218_sa 1229_op 1229_sa 1218_op 1219_op 1079_op 1073_op 8003_op 8002_op 1036_op 1013_sa 1013_op 1013_sa 1013_op"/>
    </vehicle>
    <vehicle id="veh_1795132" depart="0.5441176470588235" departLane="random">
        <route edges="21136_op"/>
    </vehicle>
    <vehicle id="veh_1372651" depart="0.5470588235294118" departLane="random">
        <route edges="21248_sa 21137_sa 30202_op 30202_sa 30202_op 21243_sa 21242_sa 21214_op 21214_sa 21215_sa 21216_sa 30031_op 30030_op 30032_op 30172_op 30173_op 30173_sa"/>
    </vehicle>
    <vehicle id="veh_759075" depart="0.55" departLane="random">
        <route edges="21216_op 21237_sa 21209_op 21230_sa"/>
    </vehicle>
    <vehicle id="veh_1501956" depart="0.5529411764705883" departLane="random">
        <route edges="30195_op 30194_op 1107_sa 1021_sa 1005_op"/>
    </vehicle>
    <vehicle id="veh_906916" depart="0.5558823529411765" departLane="random">
        <route edges="30118_op"/>
    </vehicle>
    <vehicle id="veh_927629" depart="0.5588235294117647" departLane="random">
        <route edges="30125_op 30128_sa 30127_sa"/>
    </vehicle>
    <vehicle id="veh_899461" depart="0.5676470588235294" departLane="random">
        <route edges="21236_op 21237_op 21215_op 21214_op 15342_sa 1130_sa 1131_sa 1048_sa 1049_sa 1029_sa"/>
    </vehicle>
    <vehicle id="veh_1748861" depart="0.5735294117647058" departLane="random">
        <route edges="21237_op"/>
    </vehicle>
    <vehicle id="veh_906602" depart="0.5794117647058824" departLane="random">
        <route edges="1014_sa 1009_sa 1004_sa 1001_sa 1202_sa 1203_sa 1201_sa 1060_sa 1063_sa 1065_op"/>
    </vehicle>
    <vehicle id="veh_1549476" depart="0.5823529411764706" departLane="random">
        <route edges="21243_op 30202_sa 21137_op 21135_sa 1049_sa 1029_sa 1030_sa"/>
    </vehicle>
    <vehicle id="veh_1681614" depart="0.5852941176470589" departLane="random">
        <route edges="21136_op"/>
    </vehicle>
    <vehicle id="veh_1788480" depart="0.5911764705882353" departLane="random">
        <route edges="21135_op 21135_sa"/>
    </vehicle>
    <vehicle id="veh_1733304" depart="0.5941176470588235" departLane="random">
        <route edges="1007_sa"/>
    </vehicle>
    <vehicle id="veh_1096799" depart="0.5970588235294118" departLane="random">
        <route edges="1030_op 1032_op 1033_sa 1048_op 1131_op 1045_sa 1045_op 1130_op 1216_op"/>
    </vehicle>
    <vehicle id="veh_1193583" depart="0.6029411764705882" departLane="random">
        <route edges="21259_sa 21258_sa 21265_op"/>
    </vehicle>
    <vehicle id="veh_1208486" depart="0.6058823529411764" departLane="random">
        <route edges="1049_op 1048_op 21246_op 21247_op"/>
    </vehicle>
    <vehicle id="veh_1598876" depart="0.611764705882353" departLane="random">
        <route edges="21163_op 21162_op 21161_op 21159_op 21160_op 21227_op 21228_op 21229_op 21230_op 21209_sa 21237_op 21215_op 21242_op 21243_op 30202_sa 21246_sa 1048_sa 1049_sa 1124_sa 15809_sa 8006_sa 21251_op 21265_sa 21272_sa 21273_sa"/>
    </vehicle>
    <vehicle id="veh_1739874" depart="0.6147058823529412" departLane="random">
        <route edges="21259_sa 21258_sa 21265_op 21251_sa 8006_op 15809_op 1113_op 1113_sa 15809_sa 8006_sa 21251_op 21252_op"/>
    </vehicle>
    <vehicle id="veh_938376" depart="0.6176470588235294" departLane="random">
        <route edges="21242_sa"/>
    </vehicle>
    <vehicle id="veh_1545295" depart="0.6205882352941177" departLane="random">
        <route edges="1045_sa 1034_sa 1014_sa 1009_sa"/>
    </vehicle>
    <vehicle id="veh_1052591" depart="0.6235294117647059" departLane="random">
        <route edges="1097_op 1127_op 1041_sa 1043_sa 1044_op 21246_op 21246_sa"/>
    </vehicle>
    <vehicle id="veh_1358905" depart="0.6264705882352941" departLane="random">
        <route edges="8001_op"/>
    </vehicle>
    <vehicle id="veh_1207885" depart="0.6294117647058823" departLane="random">
        <route edges="30185_sa 30182_sa 1210_op 1230_sa 1231_sa 1064_op 1065_op"/>
    </vehicle>
    <vehicle id="veh_1777845" depart="0.6323529411764706" departLane="random">
        <route edges="1033_op"/>
    </vehicle>
    <vehicle id="veh_1564427" depart="0.6352941176470588" departLane="random">
        <route edges="21247_sa"/>
    </vehicle>
    <vehicle id="veh_1042029" depart="0.6411764705882353" departLane="random">
        <route edges="21145_op 21145_sa"/>
    </vehicle>
    <vehicle id="veh_1802922" depart="0.6441176470588236" departLane="random">
        <route edges="1044_op"/>
    </vehicle>
    <vehicle id="veh_1097841" depart="0.65" departLane="random">
        <route edges="21242_sa 21214_op 15342_sa 1130_sa 1131_sa 1048_sa 1049_sa 1124_sa"/>
    </vehicle>
    <vehicle id="veh_1122111" depart="0.6529411764705882" departLane="random">
        <route edges="30165_op 30020_op 30019_op"/>
    </vehicle>
    <vehicle id="veh_1823335" depart="0.6558823529411765" departLane="random">
        <route edges="1131_sa"/>
    </vehicle>
    <vehicle id="veh_1818139" depart="0.6588235294117647" departLane="random">
        <route edges="1014_op"/>
    </vehicle>
    <vehicle id="veh_1118243" depart="0.6617647058823529" departLane="random">
        <route edges="15363_op"/>
    </vehicle>
    <vehicle id="veh_1598996" depart="0.6647058823529411" departLane="random">
        <route edges="30004_sa 30014_sa 30015_sa 30016_sa 21143_sa 21144_op 1206_sa 1207_sa 1210_sa 1211_sa 1205_sa 1204_sa 1079_sa 15641_sa 21159_op 21160_op 21227_op 21228_op 21138_sa 21199_sa 21235_op 21236_op"/>
    </vehicle>
    <vehicle id="veh_849771" depart="0.6705882352941176" departLane="random">
        <route edges="1028_op 1043_op 1040_sa 1034_sa 8005_sa 8004_sa 1053_op 1054_sa 1026_sa 1026_op 1054_op 1053_sa 8004_op 8005_op 1034_op 1040_op"/>
    </vehicle>
    <vehicle id="veh_1182808" depart="0.6735294117647059" departLane="random">
        <route edges="1043_op 1040_sa 1034_sa 1034_op"/>
    </vehicle>
    <vehicle id="veh_910922" depart="0.6882352941176471" departLane="random">
        <route edges="1232_sa 1233_sa 1233_op 30201_op"/>
    </vehicle>
    <vehicle id="veh_1626389" depart="0.6911764705882353" departLane="random">
        <route edges="1207_sa"/>
    </vehicle>
    <vehicle id="veh_838797" depart="0.6970588235294117" departLane="random">
        <route edges="1215_op 1215_sa"/>
    </vehicle>
    <vehicle id="veh_1540779" depart="0.7" departLane="random">
        <route edges="21144_op"/>
    </vehicle>
    <vehicle id="veh_1062579" depart="0.7058823529411765" departLane="random">
        <route edges="21247_sa 21137_op 21135_sa 1033_op 1032_sa 1032_op 1031_op 1043_op 1041_op 1127_sa 1059_op 1018_op 1018_sa 1059_sa 1127_op 1037_sa 1028_op 1044_op 1048_sa 21135_op 21135_sa 21135_op"/>
    </vehicle>
    <vehicle id="veh_1451823" depart="0.7205882352941176" departLane="random">
        <route edges="21206_op 21205_op 21139_op 21204_op 21203_op 21220_sa 21197_sa 21197_op 21219_sa 15207_op 15207_sa 21218_sa 21217_sa 21217_op 21218_op 21219_op"/>
    </vehicle>
    <vehicle id="veh_1772272" depart="0.7235294117647059" departLane="random">
        <route edges="21266_sa"/>
    </vehicle>
    <vehicle id="veh_1536449" depart="0.7264705882352941" departLane="random">
        <route edges="1063_op 1060_op 1201_op 1203_op 1202_op 1003_op 1003_sa 1001_op 1004_op"/>