<routes>
    <vehicle id="veh_1592073" depart="0.0" departLane="random">
        <route edges="15342_op 21212_op 21226_sa 21207_op 1215_sa 1217_sa 1052_sa 1053_sa 1013_sa 1011_sa 1014_op 1034_op"/>
    </vehicle>
    <vehicle id="veh_540277" depart="0.0024691358024691358" departLane="random">
        <route edges="1065_sa 1063_op 1060_op 30193_sa 1227_op 1023_op 1004_op 1009_op 1014_op 1034_op 1040_op 1043_sa"/>
    </vehicle>
    <vehicle id="veh_287380" depart="0.0049382716049382715" departLane="random">
        <route edges="30193_op 1201_op 1203_op 1202_op 1003_op"/>
    </vehicle>
    <vehicle id="veh_229808" depart="0.009876543209876543" departLane="random">
        <route edges="21160_sa 21159_sa 21156_sa 21146_sa"/>
    </vehicle>
    <vehicle id="veh_233169" depart="0.012345679012345678" departLane="random">
        <route edges="21247_sa 21246_sa 1048_sa 1048_op 1044_sa 1028_sa 1099_sa"/>
    </vehicle>
    <vehicle id="veh_1374129" depart="0.014814814814814815" departLane="random">
        <route edges="21259_sa 21258_sa 21257_sa 21256_sa 21255_sa 15885_sa 1125_sa 1058_op 1208_sa 1209_sa 1039_op 1038_op 1037_op 1015_op 1012_op"/>
    </vehicle>
    <vehicle id="veh_994309" depart="0.019753086419753086" departLane="random">
        <route edges="1023_op 1004_op 1007_sa 1018_sa"/>
    </vehicle>
    <vehicle id="veh_804984" depart="0.022222222222222223" departLane="random">
        <route edges="21242_sa"/>
    </vehicle>
    <vehicle id="veh_32509" depart="0.024691358024691357" departLane="random">
        <route edges="21144_op 1206_sa 1207_sa 1230_sa 1231_sa 1076_sa 1067_sa 30193_sa"/>
    </vehicle>
    <vehicle id="veh_1183166" depart="0.027160493827160494" departLane="random">
        <route edges="1029_op 1124_sa 15809_sa 8006_sa 21251_op 21251_sa"/>
    </vehicle>
    <vehicle id="veh_737378" depart="0.02962962962962963" departLane="random">
        <route edges="21184_op 1229_op 1228_op 1228_sa"/>
    </vehicle>
    <vehicle id="veh_93280" depart="0.0345679012345679" departLane="random">
        <route edges="1215_sa"/>
    </vehicle>
    <vehicle id="veh_259312" depart="0.03950617283950617" departLane="random">
        <route edges="21218_sa 21217_sa 21185_sa"/>
    </vehicle>
    <vehicle id="veh_679398" depart="0.04197530864197531" departLane="random">
        <route edges="1065_sa"/>
    </vehicle>
    <vehicle id="veh_16743" depart="0.044444444444444446" departLane="random">
        <route edges="1125_sa 1212_sa 1213_sa 15809_sa 8006_sa 21251_op 21265_sa 21272_sa 21273_sa"/>
    </vehicle>
    <vehicle id="veh_312802" depart="0.04691358024691358" departLane="random">
        <route edges="1097_op 1106_sa 1099_op 1028_op 1031_sa 1032_sa 1032_op"/>
    </vehicle>
    <vehicle id="veh_312466" depart="0.04938271604938271" departLane="random">
        <route edges="30134_op 30134_sa"/>
    </vehicle>
    <vehicle id="veh_33271" depart="0.05185185185185185" departLane="random">
        <route edges="21212_sa 21214_sa 21215_sa 21215_op"/>
    </vehicle>
    <vehicle id="veh_136056" depart="0.05432098765432099" departLane="random">
        <route edges="1047_sa 1214_sa 1215_sa 1217_sa 1216_sa 1130_sa 1131_sa 1131_op 1045_sa 1040_op"/>
    </vehicle>
    <vehicle id="veh_628830" depart="0.056790123456790124" departLane="random">
        <route edges="21266_sa 21251_sa 8006_op 15809_op 1113_op 1039_op 1038_op 1037_op 1015_op 1012_op 1011_op 1013_op 1036_sa 8002_sa 8003_sa 1228_sa 1228_op 1228_sa"/>
    </vehicle>
    <vehicle id="veh_1662062" depart="0.05925925925925926" departLane="random">
        <route edges="1124_op"/>
    </vehicle>
    <vehicle id="veh_236468" depart="0.06419753086419754" departLane="random">
        <route edges="1201_sa 1060_sa 1063_sa 1064_sa"/>
    </vehicle>
    <vehicle id="veh_1097182" depart="0.06666666666666667" departLane="random">
        <route edges="1049_sa 1124_sa 1213_op"/>
    </vehicle>
    <vehicle id="veh_1093027" depart="0.07407407407407407" departLane="random">
        <route edges="21160_sa 21159_sa 21156_sa 21145_op 1204_op 1205_op 1211_op 1210_op 1207_op 1206_op 21144_sa"/>
    </vehicle>
    <vehicle id="veh_1238270" depart="0.07654320987654321" departLane="random">
        <route edges="1037_sa"/>
    </vehicle>
    <vehicle id="veh_1516528" depart="0.08641975308641975" departLane="random">
        <route edges="21229_op"/>
    </vehicle>
    <vehicle id="veh_389310" depart="0.09382716049382717" departLane="random">
        <route edges="1125_sa 1212_sa 1213_sa 1124_op 21136_op 21248_sa 21137_sa 30202_op 30202_sa 30202_op 21245_op 30062_sa 30024_sa 30169_sa 30023_sa 30069_op"/>
    </vehicle>
    <vehicle id="veh_393826" depart="0.0962962962962963" departLane="random">
        <route edges="30200_sa 30199_op 1230_op 1230_sa"/>
    </vehicle>
    <vehicle id="veh_679084" depart="0.09876543209876543" departLane="random">
        <route edges="30195_op 30194_op 1098_op 1097_op 1127_op"/>
    </vehicle>
    <vehicle id="veh_1655882" depart="0.10123456790123457" departLane="random">
        <route edges="1007_op"/>
    </vehicle>
    <vehicle id="veh_278082" depart="0.1037037037037037" departLane="random">
        <route edges="1207_sa 1230_sa 1231_sa 1076_sa 1223_sa 1224_sa 8001_sa"/>
    </vehicle>
    <vehicle id="veh_1362623" depart="0.10617283950617284" departLane="random">
        <route edges="30154_op 21245_sa 30202_sa 21137_op 21248_op 21136_sa 1124_sa 15809_sa 8006_sa 21251_op 21252_op"/>
    </vehicle>
    <vehicle id="veh_156511" depart="0.1111111111111111" departLane="random">
        <route edges="1018_op"/>
    </vehicle>
    <vehicle id="veh_156311" depart="0.11358024691358025" departLane="random">
        <route edges="30097_op 30096_op 30095_op 30094_op 30093_op 21164_sa 21163_op 21162_op 21161_op 15641_op 1079_op 1079_sa 1219_sa"/>
    </vehicle>
    <vehicle id="veh_671364" depart="0.11604938271604938" departLane="random">
        <route edges="1024_op"/>
    </vehicle>
    <vehicle id="veh_814789" depart="0.11851851851851852" departLane="random">
        <route edges="1010_sa 1005_sa 1002_sa"/>
    </vehicle>
    <vehicle id="veh_203364" depart="0.12098765432098765" departLane="random">
        <route edges="21185_op 21184_op 1229_op 1228_op 30187_sa 30188_sa 1067_sa 1060_sa 1063_sa"/>
    </vehicle>
    <vehicle id="veh_1644964" depart="0.12345679012345678" departLane="random">
        <route edges="21214_sa"/>
    </vehicle>
    <vehicle id="veh_201160" depart="0.1259259259259259" departLane="random">
        <route edges="30198_op 30191_op 1025_sa 1214_sa 1215_sa"/>
    </vehicle>
    <vehicle id="veh_18637" depart="0.12839506172839507" departLane="random">
        <route edges="21194_op 21227_sa 21160_sa"/>
    </vehicle>
    <vehicle id="veh_615171" depart="0.1308641975308642" departLane="random">
        <route edges="1201_sa"/>
    </vehicle>
    <vehicle id="veh_336937" depart="0.13333333333333333" departLane="random">
        <route edges="1001_op 1004_op 1009_op 1014_op 1042_op 1042_sa 1042_op 15342_op 21214_sa"/>
    </vehicle>
    <vehicle id="veh_224554" depart="0.13580246913580246" departLane="random">
        <route edges="1038_op 1037_op 1015_op 1012_op 1011_op 1008_sa 1003_sa"/>
    </vehicle>
    <vehicle id="veh_436146" depart="0.1382716049382716" departLane="random">
        <route edges="21188_op"/>
    </vehicle>
    <vehicle id="veh_338990" depart="0.14074074074074075" departLane="random">
        <route edges="1201_sa 1060_sa 1063_sa 1064_sa 1066_op 30181_sa 30182_sa 1210_op 1230_sa 1231_sa 1064_op 1063_op 1060_op 1201_op 1203_op 1202_op 1003_op 1008_op 1011_sa 1014_op 1034_op 1040_op"/>
    </vehicle>
    <vehicle id="veh_1067733" depart="0.14320987654320988" departLane="random">
        <route edges="21172_sa 21171_sa 21174_op 21165_op"/>
    </vehicle>
    <vehicle id="veh_633080" depart="0.14814814814814814" departLane="random">
        <route edges="30194_op 30194_sa"/>
    </vehicle>
    <vehicle id="veh_1494498" depart="0.1506172839506173" departLane="random">
        <route edges="1003_op 1008_op 1013_op 1053_op 1054_sa 1026_sa 30191_sa"/>
    </vehicle>
    <vehicle id="veh_1802560" depart="0.15308641975308643" departLane="random">
        <route edges="21177_op"/>
    </vehicle>
    <vehicle id="veh_1015479" depart="0.15555555555555556" departLane="random">
        <route edges="8009_op 21197_sa 21198_sa 21138_sa 21140_op 21205_sa 21236_op 21237_op 21216_sa 30031_op 30030_op 30032_op 30172_op 30173_op 30173_sa"/>
    </vehicle>
    <vehicle id="veh_206882" depart="0.1580246913580247" departLane="random">
        <route edges="21220_sa 8009_sa 1220_op 1222_op 1221_op 21184_sa"/>
    </vehicle>
    <vehicle id="veh_122399" depart="0.16049382716049382" departLane="random">
        <route edges="21216_op 21215_op 21242_op 21242_sa 21214_op 15342_sa 1042_sa"/>
    </vehicle>
    <vehicle id="veh_79322" depart="0.16296296296296298" departLane="random">
        <route edges="30067_sa 30068_sa 30069_sa 30086_sa 30086_op 30023_op 30169_op 30024_op 30062_op 21245_sa"/>
    </vehicle>
    <vehicle id="veh_1520365" depart="0.1654320987654321" departLane="random">
        <route edges="1031_sa"/>
    </vehicle>
    <vehicle id="veh_1410058" depart="0.16790123456790124" departLane="random">
        <route edges="1217_op 1215_op 21207_sa"/>
    </vehicle>
    <vehicle id="veh_862637" depart="0.17037037037037037" departLane="random">
        <route edges="21259_sa"/>
    </vehicle>
    <vehicle id="veh_360931" depart="0.1728395061728395" departLane="random">
        <route edges="30024_op 30062_op 21245_sa 15363_sa"/>
    </vehicle>
    <vehicle id="veh_286976" depart="0.17530864197530865" departLane="random">
        <route edges="1202_op"/>
    </vehicle>
    <vehicle id="veh_198582" depart="0.17777777777777778" departLane="random">
        <route edges="21216_op 21215_op 21214_op 15342_sa 1042_sa 1034_op 1040_op 1041_op 1127_sa 1097_sa"/>
    </vehicle>
    <vehicle id="veh_751072" depart="0.18024691358024691" departLane="random">
        <route edges="1004_sa 1023_sa 1227_sa 30193_op 1067_op 30188_op 30187_op 1228_sa 1229_sa 21184_sa 21184_op"/>
    </vehicle>
    <vehicle id="veh_322845" depart="0.18271604938271604" departLane="random">
        <route edges="1038_op"/>
    </vehicle>
    <vehicle id="veh_1083263" depart="0.18765432098765433" departLane="random">
        <route edges="21216_op 21215_op 21214_op 15342_sa 1042_sa 1014_sa 1012_sa 1012_op"/>
    </vehicle>
    <vehicle id="veh_78154" depart="0.19012345679012346" departLane="random">
        <route edges="1008_op 1013_op 1053_op 1053_sa 1036_sa"/>
    </vehicle>
    <vehicle id="veh_470282" depart="0.1925925925925926" departLane="random">
        <route edges="1044_op 1131_op 15363_op 21245_op 30062_sa 30024_sa"/>
    </vehicle>
    <vehicle id="veh_118667" depart="0.19506172839506172" departLane="random">
        <route edges="30062_op 21245_sa 21243_sa 21242_sa 21215_sa 21237_sa 21237_op 21215_op 21242_op 21243_op 21245_op 30062_sa 30062_op 21245_sa 21243_sa 21242_sa 21215_sa 21237_sa 21236_sa 21235_sa 21234_sa 21233_sa 21232_sa 
21188_sa"/>
    </vehicle>
    <vehicle id="veh_182046" depart="0.19753086419753085" departLane="random">
        <route edges="21216_op 21237_sa 21236_sa 21205_op 21139_op 21204_op 21203_op 8008_op 1025_op 30191_sa"/>
    </vehicle>
    <vehicle id="veh_157204" depart="0.20246913580246914" departLane="random">
        <route edges="21230_op 21209_sa 21237_op 21215_op 21242_op 21243_op 21245_op 30062_sa 30062_op"/>
    </vehicle>
    <vehicle id="veh_121209" depart="0.20493827160493827" departLane="random">
        <route edges="21187_op 21186_op 21185_op 21184_op 1229_op 1228_op 1228_sa"/>
    </vehicle>
    <vehicle id="veh_167725" depart="0.2074074074074074" departLane="random">
        <route edges="21251_sa 8006_op 15809_op 1124_op 1049_op 1048_op"/>
    </vehicle>
    <vehicle id="veh_879918" depart="0.20987654320987653" departLane="random">
        <route edges="21144_op 1206_sa 1207_sa 1230_sa 1231_sa 1064_op 1063_op"/>
    </vehicle>
    <vehicle id="veh_448299" depart="0.21481481481481482" departLane="random">
        <route edges="1018_sa 1059_sa 1106_sa 1099_op 1038_sa 1039_sa 1039_op"/>
    </vehicle>
    <vehicle id="veh_117992" depart="0.21728395061728395" departLane="random">
        <route edges="1011_op 1013_op 1053_op 1054_sa 1026_sa 1025_sa 1047_op 1220_op"/>
    </vehicle>
    <vehicle id="veh_190619" depart="0.21975308641975308" departLane="random">
        <route edges="1045_sa 1034_sa 1014_sa 1011_op"/>
    </vehicle>
    <vehicle id="veh_190378" depart="0.22469135802469137" departLane="random">
        <route edges="1073_sa 1079_sa 1219_sa 1218_sa 21184_sa 21217_op 21218_op 21219_op"/>
    </vehicle>
    <vehicle id="veh_1529703" depart="0.2271604938271605" departLane="random">
        <route edges="1028_op"/>
    </vehicle>
    <vehicle id="veh_587507" depart="0.22962962962962963" departLane="random">
        <route edges="1028_sa"/>
    </vehicle>
    <vehicle id="veh_19897" depart="0.2345679012345679" departLane="random">
        <route edges="21208_sa"/>
    </vehicle>
    <vehicle id="veh_692164" depart="0.23703703703703705" departLane="random">
        <route edges="15342_sa 1042_sa 1014_sa 1009_sa 1004_sa 1023_sa 1023_op 1004_op 1006_op"/>
    </vehicle>
    <vehicle id="veh_1769914" depart="0.23950617283950618" departLane="random">
        <route edges="1073_op"/>
    </vehicle>
    <vehicle id="veh_1063058" depart="0.2419753086419753" departLane="random">
        <route edges="1064_sa 1076_sa 30188_op 30187_op 1228_sa 1229_sa 21184_sa 21185_sa 21186_sa 21227_op 21228_op 21138_sa"/>
    </vehicle>
    <vehicle id="veh_576306" depart="0.24444444444444444" departLane="random">
        <route edges="21216_op 21215_op 21214_op 15342_sa 1042_sa 1042_op"/>
    </vehicle>
    <vehicle id="veh_183822" depart="0.24938271604938272" departLane="random">
        <route edges="30024_op 30062_op 21245_sa 30202_sa 21246_sa 1131_op 1045_sa 1034_sa"/>
    </vehicle>
    <vehicle id="veh_263284" depart="0.2518518518518518" departLane="random">
        <route edges="8006_op"/>
    </vehicle>
    <vehicle id="veh_571998" depart="0.254320987654321" departLane="random">
        <route edges="21247_sa 21246_sa 1044_sa 1028_sa 1037_op"/>
    </vehicle>
    <vehicle id="veh_480399" depart="0.25679012345679014" departLane="random">
        <route edges="30097_op 30096_op 30101_sa"/>
    </vehicle>
    <vehicle id="veh_1400686" depart="0.2641975308641975" departLane="random">
        <route edges="1217_op 21211_sa 21212_sa 21214_sa 21231_sa 21231_op 21242_op 21242_sa 21242_op 21243_op 30202_sa 21137_op 21137_sa"/>
    </vehicle>
    <vehicle id="veh_1306741" depart="0.26666666666666666" departLane="random">
        <route edges="21237_op 21215_op 21214_op 15342_sa 1130_sa 1131_sa 1048_sa"/>
    </vehicle>
    <vehicle id="veh_1053569" depart="0.2691358024691358" departLane="random">
        <route edges="1063_sa 30200_sa 30201_sa 1233_sa"/>
    </vehicle>
    <vehicle id="veh_284759" depart="0.2716049382716049" departLane="random">
        <route edges="1043_sa 1031_sa 1033_sa"/>
    </vehicle>
    <vehicle id="veh_212577" depart="0.2740740740740741" departLane="random">
        <route edges="21242_sa"/>
    </vehicle>
    <vehicle id="veh_249169" depart="0.2765432098765432" departLane="random">
        <route edges="21187_op 21227_op 21228_op 21229_op 21230_op 21209_sa 21237_op 21215_op 21242_op 21243_op 21245_op 30062_sa 30024_sa"/>
    </vehicle>
    <vehicle id="veh_321844" depart="0.2814814814814815" departLane="random">
        <route edges="1038_op 1028_op 1044_op 1131_op 15363_op 21243_sa 21242_sa 21231_sa 21209_sa 21236_sa 21206_sa"/>
    </vehicle>
    <vehicle id="veh_138343" depart="0.28641975308641976" departLane="random">
        <route edges="21205_sa 21236_op 21237_op 21216_sa"/>
    </vehicle>
    <vehicle id="veh_220226" depart="0.28888888888888886" departLane="random">
        <route edges="1207_sa"/>
    </vehicle>
    <vehicle id="veh_321646" depart="0.291358024691358" departLane="random">
        <route edges="21266_sa"/>
    </vehicle>
    <vehicle id="veh_562749" depart="0.2938271604938272" departLane="random">
        <route edges="1011_op 1013_op 1053_op 1052_op 1217_op 21211_sa"/>
    </vehicle>
    <vehicle id="veh_249504" depart="0.2962962962962963" departLane="random">
        <route edges="21144_op 1206_sa 1207_sa 1230_sa 1231_sa 1064_op 1063_op 1060_op 30193_sa 1227_op 1023_op 1004_op 1006_op 1003_sa 1202_sa 1203_sa 1201_sa 1060_sa 1063_sa 1064_sa 1231_op 1230_op 1207_op 1206_op 21144_sa"/>
    </vehicle>
    <vehicle id="veh_13556" depart="0.29876543209876544" departLane="random">
        <route edges="1044_sa 1028_sa 1037_op 1127_sa 1059_op 1018_op"/>
    </vehicle>
    <vehicle id="veh_1546353" depart="0.3012345679012346" departLane="random">
        <route edges="21184_op 1229_op 1228_op 8003_op 8002_op 1036_op 1013_sa 1011_sa 1012_sa 1015_sa 1127_sa 1106_sa"/>
    </vehicle>
    <vehicle id="veh_416717" depart="0.3037037037037037" departLane="random">
        <route edges="21186_sa 21227_op 21228_op 21229_op 21230_op 21231_op 21214_op 15342_sa 1130_sa 1131_sa 1048_sa 1049_sa 1124_sa"/>
    </vehicle>
    <vehicle id="veh_138436" depart="0.30617283950617286" departLane="random">
        <route edges="1022_op 1002_sa 1004_op 1006_op 1008_op 1013_op"/>
    </vehicle>
    <vehicle id="veh_301593" depart="0.30864197530864196" departLane="random">
        <route edges="21208_sa 21209_sa 21236_sa 21206_sa"/>
    </vehicle>
    <vehicle id="veh_1748396" depart="0.3111111111111111" departLane="random">
        <route edges="1009_sa"/>
    </vehicle>
    <vehicle id="veh_702858" depart="0.3160493827160494" departLane="random">
        <route edges="21137_sa 30202_op 21245_op 30062_sa 30062_op"/>
    </vehicle>
    <vehicle id="veh_241456" depart="0.31851851851851853" departLane="random">
        <route edges="1001_op 1002_op 1021_op 1107_op 1098_op 1097_op 1127_op 1037_sa 1038_sa 1039_sa 1113_sa 15809_sa 8006_sa"/>
    </vehicle>
    <vehicle id="veh_1340413" depart="0.32098765432098764" departLane="random">
        <route edges="30181_sa"/>
    </vehicle>
    <vehicle id="veh_85269" depart="0.3234567901234568" departLane="random">
        <route edges="1001_sa 1024_sa 1224_op 1223_op 30188_op 30187_op 1073_sa 21145_sa"/>
    </vehicle>
    <vehicle id="veh_208007" depart="0.32592592592592595" departLane="random">
        <route edges="21216_op 21215_op 21214_op 15342_sa 1042_sa 1042_op 15342_op 21214_sa 21231_sa 21230_sa"/>
    </vehicle>
    <vehicle id="veh_947023" depart="0.32839506172839505" departLane="random">
        <route edges="1213_sa 1124_op 1049_op 1048_op 1131_op 1130_op 1216_op 1217_op 1215_op 1214_op 8008_sa"/>
    </vehicle>
    <vehicle id="veh_687325" depart="0.3308641975308642" departLane="random">
        <route edges="1036_op 1013_sa 1011_sa 1011_op 1013_op"/>
    </vehicle>
    <vehicle id="veh_448903" depart="0.3333333333333333" departLane="random">
        <route edges="1042_sa 1014_sa 1009_sa 1004_sa 1023_sa 1227_sa 30193_op 1060_sa 1063_sa"/>
    </vehicle>
    <vehicle id="veh_102240" depart="0.3358024691358025" departLane="random">
        <route edges="30024_op 30062_op 21245_sa 15363_sa 1130_op 1216_op 1217_op 1215_op 1214_op 1025_op"/>
    </vehicle>
    <vehicle id="veh_424653" depart="0.33827160493827163" departLane="random">
        <route edges="30201_op 30200_op 1065_op 1232_sa 30201_op"/>
    </vehicle>
    <vehicle id="veh_295441" depart="0.34074074074074073" departLane="random">
        <route edges="1034_op 1040_op 1043_sa 1031_sa 1032_sa 1032_op 1031_op 1044_op 1131_op"/>
    </vehicle>
    <vehicle id="veh_750552" depart="0.3506172839506173" departLane="random">
        <route edges="1217_op 1215_op 1214_op 8008_sa 8008_op 1214_sa 1215_sa 1217_sa 1216_sa 1130_sa 1131_sa 1048_sa 1049_sa 1124_sa 1213_op"/>
    </vehicle>
    <vehicle id="veh_1193195" depart="0.3530864197530864" departLane="random">
        <route edges="1073_op 8003_op 1056_sa 1025_sa 1214_sa 1215_sa 1217_sa 1216_sa 1130_sa 1131_sa 21246_op 21247_op"/>
    </vehicle>
    <vehicle id="veh_346964" depart="0.35555555555555557" departLane="random">
        <route edges="30188_sa 1067_sa 30193_sa 1226_sa 1225_sa 1232_sa 1232_op"/>
    </vehicle>
    <vehicle id="veh_190249" depart="0.35802469135802467" departLane="random">
        <route edges="21266_sa 21251_sa 8006_op 15809_op 1124_op 1049_op"/>
    </vehicle>
    <vehicle id="veh_1025694" depart="0.36049382716049383" departLane="random">
        <route edges="1073_op 1073_sa"/>
    </vehicle>
    <vehicle id="veh_1025788" depart="0.362962962962963" departLane="random">
        <route edges="21188_op 21187_op 21186_op 21185_op 21184_op 1229_op 30198_op 1027_op 1047_sa 1214_sa 21207_sa 21207_op 1215_sa 1217_sa"/>
    </vehicle>
    <vehicle id="veh_185254" depart="0.3654320987654321" departLane="random">
        <route edges="1065_sa 1064_sa 1076_sa 1223_sa"/>
    </vehicle>
    <vehicle id="veh_101646" depart="0.36790123456790125" departLane="random">
        <route edges="1043_sa"/>
    </vehicle>
    <vehicle id="veh_857790" depart="0.37530864197530867" departLane="random">
        <route edges="1026_op 1054_op 1053_sa 8004_op 8005_op 1034_op 1040_op 1041_op 1037_sa 1099_sa"/>
    </vehicle>
    <vehicle id="veh_1820567" depart="0.37777777777777777" departLane="random">
        <route edges="8006_op"/>
    </vehicle>
    <vehicle id="veh_1560952" depart="0.3802469135802469" departLane="random">
        <route edges="1076_sa 30188_op 30187_op 8003_op 1056_sa 30191_sa 1027_op"/>
    </vehicle>
    <vehicle id="veh_158523" depart="0.38271604938271603" departLane="random">
        <route edges="21138_op 21229_op 21230_op 21231_op 21214_op 15342_sa 1130_sa 1131_sa 1131_op 1045_sa 1040_op 1041_op 1127_sa 1097_sa"/>
    </vehicle>
    <vehicle id="veh_410028" depart="0.3851851851851852" departLane="random">
        <route edges="1044_sa 1043_op 1040_sa 1034_sa 8005_sa 8004_sa 1036_sa 8001_op 1024_op 1001_op 1002_op 1021_op 1107_op 1098_op 1097_op 1127_op 1037_sa"/>
    </vehicle>
    <vehicle id="veh_275660" depart="0.39012345679012345" departLane="random">
        <route edges="1038_op 1028_op 1028_sa"/>
    </vehicle>
    <vehicle id="veh_145106" depart="0.3925925925925926" departLane="random">
        <route edges="21216_op 21237_sa 21236_sa 21235_sa 21234_sa 21233_sa 21232_sa 21187_op 21186_op 21185_op 21184_op 1218_op 1219_op 1079_op 1204_op 1205_op 1211_op 1210_op 1207_op 1206_op 21144_sa 21143_op 30016_op 30015_op 
30015_sa 30015_op 30014_op 30013_op"/>
    </vehicle>
    <vehicle id="veh_1723801" depart="0.3950617283950617" departLane="random">
        <route edges="1125_sa 1212_sa 1213_sa 15809_sa 8006_sa"/>
    </vehicle>
    <vehicle id="veh_1015217" depart="0.4" departLane="random">
        <route edges="1109_op 1061_sa 1059_sa 1127_op 1037_sa 1028_op 1028_sa"/>
    </vehicle>
    <vehicle id="veh_556754" depart="0.4024691358024691" departLane="random">
        <route edges="1127_op"/>
    </vehicle>
    <vehicle id="veh_686974" depart="0.4049382716049383" departLane="random">
        <route edges="21160_op 21187_sa 21188_sa"/>
    </vehicle>
    <vehicle id="veh_268247" depart="0.4074074074074074" departLane="random">
        <route edges="1036_op 8004_op 8005_op 1034_op 1034_sa"/>
    </vehicle>
    <vehicle id="veh_1386133" depart="0.40987654320987654" departLane="random">
        <route edges="1003_op"/>
    </vehicle>
    <vehicle id="veh_1282133" depart="0.4123456790123457" departLane="random">
        <route edges="1037_sa"/>
    </vehicle>
    <vehicle id="veh_605050" depart="0.4148148148148148" departLane="random">
        <route edges="21144_op 1206_sa 1207_sa 1210_sa 1211_sa 1205_sa 1205_op"/>
    </vehicle>
    <vehicle id="veh_1335639" depart="0.41728395061728396" departLane="random">
        <route edges="30024_op 30062_op 21245_sa 15363_sa 1130_op 1216_op 1217_op 1215_op 1214_op 1047_op 1047_sa 1214_sa 1215_sa 1217_sa 1216_sa 1130_sa 1131_sa 21246_op"/>
    </vehicle>
    <vehicle id="veh_1385695" depart="0.41975308641975306" departLane="random">
        <route edges="1038_op"/>
    </vehicle>
    <vehicle id="veh_456095" depart="0.4246913580246914" departLane="random">
        <route edges="21245_sa 30202_sa 21246_sa 1131_op 1045_sa 1034_sa 1034_op"/>
    </vehicle>
    <vehicle id="veh_201992" depart="0.43209876543209874" departLane="random">
        <route edges="1204_op 1204_sa"/>
    </vehicle>
    <vehicle id="veh_1073294" depart="0.4345679012345679" departLane="random">
        <route edges="1004_op 1009_op 1012_sa 1015_sa 1037_sa 1028_op 1044_op 1044_sa 1031_sa 1031_op 1028_sa 1037_op 1015_op 1010_sa 1007_op 1006_op"/>
    </vehicle>
    <vehicle id="veh_303554" depart="0.43703703703703706" departLane="random">
        <route edges="8005_op 1014_sa 1009_sa 1004_sa 1023_sa"/>
    </vehicle>
    <vehicle id="veh_245327" depart="0.43950617283950616" departLane="random">
        <route edges="1215_op 1214_op 1047_op 1220_op 1222_op 1221_op 21184_sa 21185_sa 21186_sa 21187_sa 21188_sa 30029_op 30092_op 30028_op 30104_op 30112_op 30101_op 30096_sa 30097_sa 30098_sa"/>
    </vehicle>
    <vehicle id="veh_889050" depart="0.4419753086419753" departLane="random">
        <route edges="1018_sa 1059_sa 1127_op 1037_sa 1038_sa"/>
    </vehicle>
    <vehicle id="veh_303628" depart="0.4444444444444444" departLane="random">
        <route edges="21216_op 21215_op 21214_op 15342_sa 1042_sa 1014_sa 1012_sa 1012_op 1014_op 1042_op 1216_op 1217_op 1215_op 1214_op 1025_op"/>
    </vehicle>
    <vehicle id="veh_122323" depart="0.4469135802469136" departLane="random">
        <route edges="1073_op 1073_sa"/>
    </vehicle>
    <vehicle id="veh_1577642" depart="0.454320987654321" departLane="random">
        <route edges="21188_op 21187_op 21186_op 21185_op 21184_op 1229_op 1228_op 8003_op 8002_op 1036_op 8004_op 8005_op 1014_sa 1009_sa 1004_sa 1001_sa 1202_sa 1203_sa 1068_op 1223_op 1223_sa"/>
    </vehicle>
    <vehicle id="veh_164914" depart="0.4567901234567901" departLane="random">
        <route edges="1204_op 1205_op 30184_op 30183_op 1081_sa 1066_sa 1064_op 1065_op"/>
    </vehicle>
    <vehicle id="veh_317980" depart="0.45925925925925926" departLane="random">
        <route edges="1042_sa 8005_sa 8004_sa 1036_sa 8002_sa 8003_sa 1228_sa 1229_sa 1221_sa 1222_sa 15207_sa 21192_sa 21193_sa 21228_op 21229_op 21230_op 21208_op"/>
    </vehicle>
    <vehicle id="veh_1350652" depart="0.4641975308641975" departLane="random">
        <route edges="1043_sa 1031_sa 1033_sa"/>
    </vehicle>
    <vehicle id="veh_1385218" depart="0.4666666666666667" departLane="random">
        <route edges="21176_sa 21161_op 21159_op 21160_op 21186_op 21185_op 21184_op 1229_op 1228_op 8003_op 8002_op 1036_op 1013_sa 1013_op 1013_sa 1011_sa 1009_sa"/>
    </vehicle>
    <vehicle id="veh_1421894" depart="0.4691358024691358" departLane="random">
        <route edges="1025_op 1026_op 1054_op 1053_sa 1013_sa 1011_sa 1012_sa 1015_sa 1041_sa 1043_sa 1028_sa"/>
    </vehicle>
    <vehicle id="veh_173262" depart="0.47160493827160493" departLane="random">
        <route edges="1014_op 1034_op 1040_op 1043_sa 1044_op 1131_op 1045_sa 1045_op 1130_op 15342_op 21214_sa 21215_sa 21216_sa 30031_op 30030_op 30032_op 30172_op 30173_op 30173_sa"/>
    </vehicle>
    <vehicle id="veh_188587" depart="0.4740740740740741" departLane="random">
        <route edges="21195_op 21233_op 21234_op 21235_op 21206_sa 21206_op 21236_op"/>
    </vehicle>
    <vehicle id="veh_299110" depart="0.4765432098765432" departLane="random">
        <route edges="1045_sa 1034_sa 1014_sa 1011_op 1008_sa 1003_sa 1202_sa"/>
    </vehicle>
    <vehicle id="veh_261009" depart="0.47901234567901235" departLane="random">
        <route edges="1042_op 15342_op 21214_sa 21231_sa 21231_op 21215_sa 21216_sa 21216_op 21215_op 21242_op 21242_sa 21214_op 15342_sa 1042_sa 1042_op"/>
    </vehicle>
    <vehicle id="veh_1702756" depart="0.48148148148148145" departLane="random">
        <route edges="21156_op"/>
    </vehicle>
    <vehicle id="veh_1702551" depart="0.4839506172839506" departLane="random">
        <route edges="8005_op"/>
    </vehicle>
    <vehicle id="veh_269778" depart="0.4888888888888889" departLane="random">
        <route edges="30069_sa 30023_op 30169_op 30024_op 30062_op 21245_sa 30202_sa 21246_sa 1048_sa 1049_sa 1124_sa 15809_sa 8006_sa 21251_op 21251_sa"/>
    </vehicle>
    <vehicle id="veh_966746" depart="0.49135802469135803" departLane="random">
        <route edges="1063_op 1060_op 1201_op 1203_op 1202_op 1003_op 1006_sa 1007_sa 1018_sa"/>
    </vehicle>
    <vehicle id="veh_206872" depart="0.4962962962962963" departLane="random">
        <route edges="30096_sa 30097_sa 30122_op 30121_op 30120_sa 30096_op 30096_sa 30097_sa 30122_op 30040_op 30040_sa"/>
    </vehicle>
    <vehicle id="veh_1694925" depart="0.49876543209876545" departLane="random">
        <route edges="15809_sa"/>
    </vehicle>
    <vehicle id="veh_153437" depart="0.5061728395061729" departLane="random">
        <route edges="1220_sa 1027_sa 30191_op 1026_op 1054_op 1053_sa 1013_sa 1011_sa 1012_sa 1015_sa 1037_sa 1038_sa"/>
    </vehicle>
    <vehicle id="veh_1354751" depart="0.508641975308642" departLane="random">
        <route edges="1060_op"/>
    </vehicle>
    <vehicle id="veh_1812771" depart="0.5111111111111111" departLane="random">
        <route edges="1056_sa"/>
    </vehicle>
    <vehicle id="veh_1380896" depart="0.5135802469135803" departLane="random">
        <route edges="1040_op 1041_op 1041_sa 1040_sa 1040_op"/>
    </vehicle>
    <vehicle id="veh_170740" depart="0.5160493827160494" departLane="random">
        <route edges="21138_op 21228_sa 21227_sa 21160_sa"/>
    </vehicle>
    <vehicle id="veh_928825" depart="0.5209876543209877" departLane="random">