<routes>
    <vehicle id="veh_1633559" depart="0.1518987341772152" departLane="random">
        <route edges="21135_sa"/>
    </vehicle>
    <vehicle id="veh_1319584" depart="0.6075949367088608" departLane="random">
        <route edges="1038_op"/>
    </vehicle>
    <vehicle id="veh_785107" depart="0.7594936708860759" departLane="random">
        <route edges="21273_op 21272_op 21257_sa 21263_op 8006_op 15809_op 1124_op 1049_op 1048_op 1131_op 1130_op 1216_op
1217_op 1215_op 1214_op 1214_sa 21207_sa"/>
    </vehicle>
    <vehicle id="veh_462511" depart="0.9113924050632911" departLane="random">
        <route edges="30024_op 30062_op 21245_sa 21243_sa 21242_sa 21231_sa 21230_sa 21229_sa 21198_op 21197_op 21219_sa 
21218_sa"/>
    </vehicle>
    <vehicle id="veh_325312" depart="1.0632911392405064" departLane="random">
        <route edges="21230_op 21231_op 21214_op 15342_sa 15342_op 21214_sa 21231_sa 21230_sa"/>
    </vehicle>
    <vehicle id="veh_1357641" depart="1.5189873417721518" departLane="random">
        <route edges="30068_op"/>
    </vehicle>
    <vehicle id="veh_1714901" depart="1.6708860759493671" departLane="random">
        <route edges="21216_op 21215_op 21242_op 21242_sa 21214_op 15342_sa 1130_sa 1131_sa 1048_sa 1049_sa 1124_sa 
15809_sa 8006_sa"/>
    </vehicle>
    <vehicle id="veh_248859" depart="2.126582278481013" departLane="random">
        <route edges="1037_op 1015_op 1012_op 1014_op 1042_op 1042_sa 8005_sa 8004_sa 1036_sa 8002_sa 8003_sa 1228_sa 
1229_sa 21184_sa 21185_sa 21186_sa 21187_sa 21188_sa"/>
    </vehicle>
    <vehicle id="veh_205109" depart="2.278481012658228" departLane="random">
        <route edges="1053_sa 1013_sa 1013_op 1013_sa 1011_sa 1012_sa 1012_op"/>
    </vehicle>
    <vehicle id="veh_449108" depart="2.430379746835443" departLane="random">
        <route edges="21232_sa 21187_op 21186_op 21185_op 21184_op 1229_op 1228_op 30187_sa 30186_op 30189_op 30183_op 
1081_sa 1066_sa 1076_sa 1223_sa 1224_sa 1024_op 1003_op 1006_sa 1007_sa 1018_sa"/>
    </vehicle>
    <vehicle id="veh_572191" depart="2.5822784810126582" departLane="random">
        <route edges="1053_sa"/>
    </vehicle>
    <vehicle id="veh_1528094" depart="2.7341772151898733" departLane="random">
        <route edges="1028_op 1031_sa 1032_sa 1029_op 1124_sa"/>
    </vehicle>
    <vehicle id="veh_679375" depart="2.8860759493670884" departLane="random">
        <route edges="1018_op 1007_op 1007_sa 1018_sa"/>
    </vehicle>
    <vehicle id="veh_181179" depart="3.0379746835443036" departLane="random">
        <route edges="1044_op 1131_op 1130_op 1216_op 1217_op 1215_op 1214_op 1047_op 1220_op 15207_sa 21218_sa 
15217_op"/>
    </vehicle>
    <vehicle id="veh_248216" depart="3.189873417721519" departLane="random">
        <route edges="1125_sa 1212_sa 1213_sa 1124_op 1049_op 1049_sa 1124_sa 15809_sa 8006_sa 21263_sa 21257_op 21272_sa 
21273_sa"/>
    </vehicle>
    <vehicle id="veh_1777547" depart="3.3417721518987342" departLane="random">
        <route edges="1018_sa"/>
    </vehicle>
    <vehicle id="veh_735884" depart="3.4936708860759493" departLane="random">
        <route edges="1076_op 1076_sa 1223_sa"/>
    </vehicle>
    <vehicle id="veh_190298" depart="3.79746835443038" departLane="random">
        <route edges="1037_sa 1038_sa 1030_op 1032_op"/>
    </vehicle>
    <vehicle id="veh_1363705" depart="4.253164556962026" departLane="random">
        <route edges="1014_sa 1009_sa 1006_op 1003_sa 1202_sa 1203_sa 1201_sa 1060_sa 1063_sa"/>
    </vehicle>
    <vehicle id="veh_1091572" depart="4.405063291139241" departLane="random">
        <route edges="1228_op 30187_sa 30188_sa 1067_sa 1201_op"/>
    </vehicle>
    <vehicle id="veh_312954" depart="4.556962025316456" departLane="random">
        <route edges="1127_sa 1059_op 1018_op 1007_op 1006_op 1003_sa"/>
    </vehicle>
    <vehicle id="veh_1334498" depart="4.708860759493671" departLane="random">
        <route edges="30192_op"/>
    </vehicle>
    <vehicle id="veh_1658272" depart="4.860759493670886" departLane="random">
        <route edges="21266_sa 21251_sa 8006_op 15809_op 1124_op 1049_op 1048_op 1048_sa"/>
    </vehicle>
    <vehicle id="veh_338571" depart="5.012658227848101" departLane="random">
        <route edges="1099_op 1028_op 1028_sa"/>
    </vehicle>
    <vehicle id="veh_332353" depart="5.1645569620253164" departLane="random">
        <route edges="15217_sa 21218_op 21219_op 8009_sa"/>
    </vehicle>
    <vehicle id="veh_384466" depart="5.468354430379747" departLane="random">
        <route edges="1018_op 1007_op 1006_op 1008_op"/>
    </vehicle>
    <vehicle id="veh_850793" depart="5.620253164556962" departLane="random">
        <route edges="1064_sa"/>
    </vehicle>
    <vehicle id="veh_438943" depart="5.772151898734177" departLane="random">
        <route edges="21263_op 8006_op 15809_op 1124_op 1049_op 1048_op 1131_op 1045_sa 1034_sa 1034_op 1040_op 1043_sa 
1031_sa 1032_sa"/>
    </vehicle>
    <vehicle id="veh_1446466" depart="6.075949367088607" departLane="random">
        <route edges="1109_op 1109_sa"/>
    </vehicle>
    <vehicle id="veh_951727" depart="6.227848101265822" departLane="random">
        <route edges="1061_sa"/>
    </vehicle>
    <vehicle id="veh_516334" depart="6.379746835443038" departLane="random">
        <route edges="1044_op 1131_op 15363_op 21245_op 30062_sa 30062_op 21245_sa 15363_sa 1131_sa 1131_op"/>
    </vehicle>
    <vehicle id="veh_1309846" depart="6.531645569620253" departLane="random">
        <route edges="21207_op 1215_sa 1217_sa 1216_sa 1130_sa 1131_sa 1048_sa 1049_sa 1124_sa 15809_sa 8006_sa 21251_op 
21265_sa 21272_sa 21273_sa"/>
    </vehicle>
    <vehicle id="veh_723411" depart="6.6835443037974684" departLane="random">
        <route edges="21216_op 21215_op 21242_op 21243_op 30202_sa 21246_sa 1044_sa"/>
    </vehicle>
    <vehicle id="veh_430267" depart="6.987341772151899" departLane="random">
        <route edges="21177_op 21178_op 21179_op 21163_sa 21164_op 30090_sa"/>
    </vehicle>
    <vehicle id="veh_286308" depart="7.291139240506329" departLane="random">
        <route edges="1044_op 1048_sa 1049_sa 1124_sa 15809_sa 8006_sa"/>
    </vehicle>
    <vehicle id="veh_199246" depart="7.443037974683544" departLane="random">
        <route edges="1125_sa 1212_sa 1126_op 1209_sa 1039_op 1038_op 1037_op 1127_sa 1059_op 1018_op"/>
    </vehicle>
    <vehicle id="veh_429729" depart="7.59493670886076" departLane="random">
        <route edges="21146_op 21145_op 1073_op 8003_op 8002_op 1036_op 8004_op 8005_op 1034_op 1040_op 1041_op 1127_sa"/>
    </vehicle>
    <vehicle id="veh_677765" depart="8.050632911392405" departLane="random">
        <route edges="1202_op 1001_op 1002_op 1021_op 1061_sa 1059_sa 1127_op 1041_sa 1043_sa 1044_op 21246_op"/>
    </vehicle>
    <vehicle id="veh_242602" depart="8.202531645569621" departLane="random">
        <route edges="1018_op 1007_op 1009_op 1014_op 1042_op 1042_sa 1014_sa 1009_sa 1007_sa 1007_op 1009_op 1011_op 
1013_op 1053_op 1052_op 1217_op 1217_sa 1217_op 21211_sa"/>
    </vehicle>
    <vehicle id="veh_251598" depart="8.354430379746836" departLane="random">
        <route edges="1032_op"/>
    </vehicle>
    <vehicle id="veh_484150" depart="8.506329113924052" departLane="random">
        <route edges="30053_sa 30015_sa 30016_sa 21143_sa 21144_op 1206_sa 1207_sa 1210_sa 1211_sa 1205_sa 1204_sa 1079_sa
1219_sa 21158_sa 21160_op 21227_op 21228_op 21229_op 21230_op 21209_sa 21237_op 21215_op 21242_op 21243_op 30202_sa 
21137_op 21135_sa"/>
    </vehicle>
    <vehicle id="veh_210789" depart="8.810126582278482" departLane="random">
        <route edges="1073_op 1228_sa 1229_sa 21184_sa 21185_sa 21186_sa 21227_op 21228_op 21228_sa 21227_sa 21186_op 
21185_op 21184_op 1229_op 1228_op 30187_sa 30187_op"/>
    </vehicle>
    <vehicle id="veh_224474" depart="8.962025316455696" departLane="random">
        <route edges="21135_sa 1048_op 1044_sa 1028_sa 1028_op"/>
    </vehicle>
    <vehicle id="veh_1305285" depart="9.113924050632912" departLane="random">
        <route edges="1034_sa 8005_sa 8004_sa 1036_sa 8002_sa 8003_sa 1228_sa 1229_sa 21184_sa 21184_op 1221_sa 1222_sa 
1220_sa 1047_sa 1214_sa 1214_op 8008_sa 21220_sa 21219_sa 21218_sa 21217_sa 21185_sa"/>
    </vehicle>
    <vehicle id="veh_884899" depart="9.417721518987342" departLane="random">
        <route edges="21233_sa 21232_sa 21187_op 21160_sa"/>
    </vehicle>
    <vehicle id="veh_888766" depart="9.873417721518987" departLane="random">
        <route edges="1125_sa"/>
    </vehicle>
    <vehicle id="veh_26496" depart="10.025316455696203" departLane="random">
        <route edges="1043_sa"/>
    </vehicle>
    <vehicle id="veh_1159592" depart="10.177215189873417" departLane="random">
        <route edges="21216_op 21215_op 21214_op 15342_sa 1042_sa 1014_sa 1009_sa 1009_op 1014_op 1042_op 15342_op 
21214_sa 21215_sa 21215_op"/>
    </vehicle>
    <vehicle id="veh_64112" depart="10.329113924050633" departLane="random">
        <route edges="30097_op 30096_op 30101_sa 30112_sa 30104_sa 30028_sa 30092_sa 30029_sa 21188_op 21187_op 21186_op 
21185_op 21184_op 1229_op 1228_op 30187_sa 30188_sa 1076_op 1231_op 1230_op 1207_op 1206_op 21144_sa"/>
    </vehicle>
    <vehicle id="veh_473616" depart="10.481012658227847" departLane="random">
        <route edges="1011_sa 1009_sa 1006_op 1003_sa"/>
    </vehicle>
    <vehicle id="veh_1651992" depart="10.784810126582277" departLane="random">
        <route edges="1228_op"/>
    </vehicle>
    <vehicle id="veh_71535" depart="10.936708860759493" departLane="random">
        <route edges="21280_sa 21279_sa 21272_op 21257_sa 21263_op 8006_op 15809_op 1124_op 21136_op 21248_sa 21137_sa 
21247_op"/>
    </vehicle>
    <vehicle id="veh_1436661" depart="11.08860759493671" departLane="random">
        <route edges="1002_sa 1001_sa 1202_sa 1203_sa 1201_sa 1060_sa 1063_sa 1065_op"/>
    </vehicle>
    <vehicle id="veh_123190" depart="11.240506329113924" departLane="random">
        <route edges="1060_sa 30192_sa 1226_op 1227_op 1023_op 1004_op 1007_sa 1010_op"/>
    </vehicle>
    <vehicle id="veh_515719" depart="11.39240506329114" departLane="random">
        <route edges="30069_sa 30023_op 30169_op 30024_op 30062_op 21245_sa 15363_sa 1045_sa 1040_op 1043_sa"/>
    </vehicle>
    <vehicle id="veh_12001" depart="11.544303797468354" departLane="random">
        <route edges="21216_op 21215_op 21242_op 21242_sa 21231_sa 21230_sa"/>
    </vehicle>
    <vehicle id="veh_209760" depart="11.69620253164557" departLane="random">
        <route edges="21162_op 21161_op 21159_op 21158_op 1218_sa 1229_op 1228_op 8003_op 8002_op 1036_op 8004_op 8005_op 
1034_op 1040_op 1043_sa 1031_sa 1032_sa"/>
    </vehicle>
    <vehicle id="veh_541296" depart="11.848101265822784" departLane="random">
        <route edges="1058_op"/>
    </vehicle>
    <vehicle id="veh_707213" depart="12.0" departLane="random">
        <route edges="1028_op 1044_op 1131_op 1045_sa 1045_op 1130_op 1216_op 1217_op 21211_sa"/>
    </vehicle>
    <vehicle id="veh_185317" depart="12.151898734177214" departLane="random">
        <route edges="15207_sa 21192_sa 21222_sa 21222_op 21223_op 21198_sa 21138_sa 21199_sa 21235_op 21236_op 21237_op 
21216_sa"/>
    </vehicle>
    <vehicle id="veh_706941" depart="12.30379746835443" departLane="random">
        <route edges="21247_sa 21137_op 21137_sa"/>
    </vehicle>
    <vehicle id="veh_323291" depart="12.455696202531644" departLane="random">
        <route edges="21266_sa 21265_sa 21257_sa"/>
    </vehicle>
    <vehicle id="veh_240065" depart="12.759493670886076" departLane="random">
        <route edges="1067_sa 30193_sa 1226_sa 1225_sa 1110_sa 1108_sa 1109_op 1107_op 1098_op 1097_op 1127_op 1041_sa 
1043_sa 1044_op 1048_sa"/>
    </vehicle>
    <vehicle id="veh_301216" depart="13.367088607594937" departLane="random">
        <route edges="1124_op 21136_op 21248_sa 21137_sa 30202_op 21245_op 30062_sa 30024_sa"/>
    </vehicle>
    <vehicle id="veh_254236" depart="13.518987341772153" departLane="random">
        <route edges="30024_op 30062_op 21245_sa 30202_sa 21137_op 21248_op 21136_sa 1124_sa 15809_sa 8006_sa"/>
    </vehicle>
    <vehicle id="veh_1686405" depart="13.974683544303797" departLane="random">
        <route edges="1018_sa"/>
    </vehicle>
    <vehicle id="veh_585475" depart="14.126582278481013" departLane="random">
        <route edges="1025_op 30191_sa 30198_sa 1228_op 1228_sa"/>
    </vehicle>
    <vehicle id="veh_103834" depart="14.278481012658228" departLane="random">
        <route edges="21275_sa 21276_sa 21252_sa 21252_op"/>
    </vehicle>
    <vehicle id="veh_425158" depart="14.430379746835444" departLane="random">
        <route edges="21258_op 21258_sa"/>
    </vehicle>
    <vehicle id="veh_367047" depart="14.734177215189874" departLane="random">
        <route edges="1073_op 30187_sa 30188_sa 30188_op"/>
    </vehicle>
    <vehicle id="veh_327242" depart="14.886075949367088" departLane="random">
        <route edges="30024_op 30062_op 21245_sa 15363_sa 1045_sa 1034_sa 1014_sa 1009_sa 1004_sa"/>
    </vehicle>
    <vehicle id="veh_28509" depart="15.18987341772152" departLane="random">
        <route edges="21187_op 21186_op 21221_op 21222_op 21192_op"/>
    </vehicle>
    <vehicle id="veh_315289" depart="15.493670886075948" departLane="random">
        <route edges="21188_op 21187_op 21186_op 21185_op 21184_op"/>
    </vehicle>
    <vehicle id="veh_308917" depart="15.645569620253164" departLane="random">
        <route edges="30024_op 30062_op 21245_sa 15363_sa 1045_sa 1034_sa 1014_sa 1009_sa 1007_sa"/>
    </vehicle>
    <vehicle id="veh_225037" depart="15.79746835443038" departLane="random">
        <route edges="21188_op 21187_op 21186_op 21185_op 21184_op"/>
    </vehicle>
    <vehicle id="veh_122851" depart="15.949367088607593" departLane="random">
        <route edges="1059_op 1061_op 1021_sa 1002_sa 1004_op 1006_op"/>
    </vehicle>
    <vehicle id="veh_203630" depart="16.70886075949367" departLane="random">
        <route edges="21138_op"/>
    </vehicle>
    <vehicle id="veh_1198129" depart="17.012658227848103" departLane="random">
        <route edges="21188_op 21187_op 21186_op 21185_op 21184_op 1221_sa 1222_sa 1220_sa 1047_sa 1214_sa 1215_sa 1217_sa
1216_sa 1130_sa 1131_sa 1131_op"/>
    </vehicle>
    <vehicle id="veh_754303" depart="17.31645569620253" departLane="random">
        <route edges="1079_sa 1219_sa 1218_sa 1221_sa 1222_sa 1220_sa 1047_sa 1214_sa 21207_sa"/>
    </vehicle>
    <vehicle id="veh_1579301" depart="17.468354430379748" departLane="random">
        <route edges="1081_sa"/>
    </vehicle>
    <vehicle id="veh_278976" depart="17.620253164556964" departLane="random">
        <route edges="21266_sa 21251_sa 8006_op 15809_op 1124_op 1049_op 1048_op 1131_op"/>
    </vehicle>
    <vehicle id="veh_433405" depart="17.77215189873418" departLane="random">
        <route edges="1037_op 1041_sa 1040_sa 1045_op 15363_op 21243_sa"/>
    </vehicle>
    <vehicle id="veh_1097163" depart="17.924050632911392" departLane="random">
        <route edges="21245_op 30062_sa 30024_sa"/>
    </vehicle>
    <vehicle id="veh_13970" depart="18.075949367088608" departLane="random">
        <route edges="21138_op 21229_op 21230_op 21231_op 21214_op 15342_sa 1130_sa 1131_sa 1048_sa 1049_sa"/>
    </vehicle>
    <vehicle id="veh_665949" depart="18.531645569620252" departLane="random">
        <route edges="1034_op 1040_op 1041_op 1127_sa"/>
    </vehicle>
    <vehicle id="veh_624008" depart="18.835443037974684" departLane="random">
        <route edges="1003_sa 1202_sa 1203_sa 1201_sa 1060_sa 1063_sa"/>
    </vehicle>
    <vehicle id="veh_1745278" depart="18.9873417721519" departLane="random">
        <route edges="1229_sa"/>
    </vehicle>
    <vehicle id="veh_1789955" depart="19.29113924050633" departLane="random">
        <route edges="1124_op"/>
    </vehicle>
    <vehicle id="veh_252098" depart="19.443037974683545" departLane="random">
        <route edges="1206_sa 1206_op"/>
    </vehicle>
    <vehicle id="veh_125545" depart="19.59493670886076" departLane="random">
        <route edges="21138_op 21228_sa 21227_sa 21160_sa"/>
    </vehicle>
    <vehicle id="veh_1744967" depart="19.89873417721519" departLane="random">
        <route edges="21266_sa 21251_sa 8006_op 15809_op 1124_op 1049_op 1048_op 1131_op 1130_op 15342_op 21214_sa 
21231_sa 21231_op 21215_sa 21216_sa 30031_op 30030_op 30030_sa"/>
    </vehicle>
    <vehicle id="veh_704821" depart="20.20253164556962" departLane="random">
        <route edges="1001_sa"/>
    </vehicle>
    <vehicle id="veh_1822810" depart="20.354430379746834" departLane="random">
        <route edges="21178_op"/>
    </vehicle>
    <vehicle id="veh_181571" depart="20.50632911392405" departLane="random">
        <route edges="21144_op 1206_sa 1207_sa 1210_sa"/>
    </vehicle>
    <vehicle id="veh_455024" depart="20.658227848101266" departLane="random">
        <route edges="1029_op 1049_op 1048_op 1048_sa 21135_op 21135_sa 1033_op 1031_op 1028_sa 1037_op 1015_op 1010_sa 
1005_sa 1002_sa 1004_op"/>
    </vehicle>
    <vehicle id="veh_318025" depart="20.962025316455694" departLane="random">
        <route edges="1063_sa"/>
    </vehicle>
    <vehicle id="veh_1032655" depart="21.11392405063291" departLane="random">
        <route edges="1018_op 1005_sa 1002_sa 1023_sa 1227_sa 1226_sa 1225_sa 1065_sa 1064_sa 1231_op 1230_op 1230_sa"/>
    </vehicle>
    <vehicle id="veh_1578891" depart="21.265822784810126" departLane="random">
        <route edges="1023_op 1004_op 1009_op 1014_op 1042_op 15342_op 21214_sa 21215_sa 21216_sa 30031_op 30030_op 
30030_sa"/>
    </vehicle>
    <vehicle id="veh_1174061" depart="21.417721518987342" departLane="random">
        <route edges="21185_op 21184_op 1229_op 1228_op 30187_sa 30188_sa 1067_sa 30193_sa 1227_op 1023_op 1002_op 1005_op
1005_sa 1021_op 1061_sa 1059_sa 1127_op 1041_sa 1043_sa 1044_op 1131_op"/>
    </vehicle>
    <vehicle id="veh_91755" depart="21.569620253164555" departLane="random">
        <route edges="30097_op 30096_op 30095_op 30094_op 30093_op 21164_sa 21163_op 21162_op 21161_op 21159_op 21160_op 
21186_op 21185_op 21184_op 1229_op 1228_op 8003_op 8002_op 1036_op 8004_op"/>
    </vehicle>
    <vehicle id="veh_677175" depart="21.72151898734177" departLane="random">
        <route edges="1002_sa 1001_sa 1003_op"/>
    </vehicle>
    <vehicle id="veh_141367" depart="22.025316455696203" departLane="random">
        <route edges="1041_op 1041_sa"/>
    </vehicle>
    <vehicle id="veh_17647" depart="22.17721518987342" departLane="random">
        <route edges="21156_op 21159_op 21160_op 21227_op 21228_op 21229_op 21204_op 21225_op 21207_op 1215_sa 1217_sa 
1216_sa 1130_sa 1045_sa 1040_op 1041_op 1127_sa 1097_sa"/>
    </vehicle>
    <vehicle id="veh_1479345" depart="22.481012658227847" departLane="random">
        <route edges="21144_op 1206_sa 1207_sa 1230_sa 1231_sa 1064_op 1065_op"/>
    </vehicle>
    <vehicle id="veh_233445" depart="22.632911392405063" departLane="random">
        <route edges="1008_op 1011_sa 1014_op 1034_op 1040_op 1043_sa 1028_sa"/>
    </vehicle>
    <vehicle id="veh_158413" depart="22.78481012658228" departLane="random">
        <route edges="1028_op 1044_op 1131_op 1045_sa 1045_op 1130_op 15342_op 21214_sa 21231_sa 21230_sa"/>
    </vehicle>
    <vehicle id="veh_957294" depart="22.93670886075949" departLane="random">
        <route edges="1063_op 1060_op 1067_op 30188_op 30187_op 1228_sa 1229_sa 21184_sa 21185_sa 21186_sa 21187_sa 
21188_sa 30029_op 30092_op 30028_op 30104_op 30112_op 30101_op 30096_sa 30097_sa 30098_sa"/>
    </vehicle>
    <vehicle id="veh_100899" depart="23.240506329113924" departLane="random">
        <route edges="21266_sa 21251_sa 8006_op 15809_op"/>
    </vehicle>
    <vehicle id="veh_693117" depart="23.39240506329114" departLane="random">
        <route edges="21252_sa 21251_sa 8006_op 15809_op 1124_op"/>
    </vehicle>
    <vehicle id="veh_1511602" depart="23.544303797468352" departLane="random">
        <route edges="1229_sa"/>
    </vehicle>
    <vehicle id="veh_1187778" depart="23.696202531645568" departLane="random">
        <route edges="1056_sa 30191_sa 1027_op 1220_op 1222_op 1221_op 21184_sa 21185_sa 21186_sa 21187_sa 21188_sa"/>
    </vehicle>
    <vehicle id="veh_317266" depart="23.848101265822784" departLane="random">
        <route edges="21231_sa 21230_sa 21229_sa"/>
    </vehicle>
    <vehicle id="veh_648046" depart="24.0" departLane="random">
        <route edges="1099_op 1038_sa 1039_sa 1209_op 1208_op 1122_op 1103_sa 1102_sa 1101_op 1098_sa 1107_sa 1109_sa 
1108_op 1110_op 1232_sa 1233_sa 1206_op 21144_sa"/>
    </vehicle>
    <vehicle id="veh_178815" depart="24.759493670886073" departLane="random">
        <route edges="21208_sa 21230_sa 21229_sa 21228_sa 21227_sa 21186_op 21185_op 21184_op 1229_op 1228_op 30187_sa 
30188_sa 1223_sa 1224_sa 1224_op"/>
    </vehicle>
    <vehicle id="veh_294198" depart="25.063291139240505" departLane="random">
        <route edges="1125_sa"/>
    </vehicle>
    <vehicle id="veh_1264750" depart="25.21518987341772" departLane="random">
        <route edges="1016_sa 1008_sa 1003_sa 1202_sa 1203_sa 1201_sa 1067_op"/>
    </vehicle>
    <vehicle id="veh_1806388" depart="25.367088607594937" departLane="random">
        <route edges="21188_op 21232_op 21233_op 21234_op 21235_op 21236_op 21237_op 21216_sa 30031_op 30030_op 
30030_sa"/>
    </vehicle>
    <vehicle id="veh_1309680" depart="25.518987341772153" departLane="random">
        <route edges="1010_sa 1007_op 1004_sa 1002_op 1002_sa 1004_op 1006_op"/>
    </vehicle>
    <vehicle id="veh_192696" depart="26.126582278481013" departLane="random">
        <route edges="21208_sa 21231_op 21215_sa 21216_sa 30031_op 30030_op 30030_sa"/>
    </vehicle>
    <vehicle id="veh_1727540" depart="26.27848101265823" departLane="random">
        <route edges="21247_sa"/>
    </vehicle>
    <vehicle id="veh_309931" depart="26.430379746835445" departLane="random">
        <route edges="21263_op 8006_op 15809_op 1124_op 1049_op 1049_sa"/>
    </vehicle>
    <vehicle id="veh_94054" depart="26.582278481012658" departLane="random">
        <route edges="21195_op 21232_sa 21188_sa"/>
    </vehicle>
    <vehicle id="veh_80136" depart="26.88607594936709" departLane="random">
        <route edges="1026_op 1054_op 1053_sa 1013_sa 1008_sa 1008_op 1016_op 8005_op 1042_op 15342_op 21214_sa 21231_sa 
21231_op 21215_sa 21216_sa 30031_op 30030_op 30030_sa"/>
    </vehicle>
    <vehicle id="veh_1615015" depart="27.037974683544306" departLane="random">
        <route edges="21186_sa 21187_sa 21188_sa 30029_op 30092_op 30091_op 30108_op 30105_op 30094_sa 30095_sa 30096_sa 
30097_sa 30098_sa"/>
    </vehicle>
    <vehicle id="veh_634703" depart="27.189873417721518" departLane="random">
        <route edges="1041_sa"/>
    </vehicle>
    <vehicle id="veh_1101603" depart="27.341772151898734" departLane="random">
        <route edges="21242_sa 21214_op 15342_sa 1130_sa 1131_sa 1048_sa 1049_sa 1124_sa 15809_sa 8006_sa 21251_op 
21251_sa"/>
    </vehicle>
    <vehicle id="veh_304188" depart="27.49367088607595" departLane="random">
        <route edges="1009_sa"/>
    </vehicle>
    <vehicle id="veh_614849" depart="27.645569620253166" departLane="random">
        <route edges="30096_sa 30097_sa 30098_sa"/>
    </vehicle>
    <vehicle id="veh_56586" depart="27.797468354430382" departLane="random">
        <route edges="1045_sa 1034_sa 1014_sa 1009_sa 1006_op"/>
    </vehicle>
    <vehicle id="veh_1208236" depart="28.10126582278481" departLane="random">
        <route edges="21230_op 21231_op 21242_op 21243_op 21245_op 30062_sa 30024_sa"/>
    </vehicle>
    <vehicle id="veh_82917" depart="28.253164556962027" departLane="random">
        <route edges="21179_sa 21166_op 21165_op 21160_op 21227_op 21228_op 21229_op 21230_op 21209_sa 21237_op 21215_op 
21242_op 21243_op 21245_op 30062_sa 30024_sa"/>
    </vehicle>
    <vehicle id="veh_1207586" depart="28.405063291139243" departLane="random">
        <route edges="1216_sa 1042_sa 8005_sa 8004_sa 1036_sa 8002_sa 8003_sa 1228_sa 1229_sa 21184_sa 21185_sa"/>
    </vehicle>
    <vehicle id="veh_229002" depart="28.556962025316455" departLane="random">
        <route edges="30024_op 30062_op 21245_sa 30202_sa 21246_sa 1044_sa"/>
    </vehicle>
    <vehicle id="veh_63494" depart="28.860759493670887" departLane="random">
        <route edges="1130_op"/>
    </vehicle>
    <vehicle id="veh_486302" depart="29.164556962025316" departLane="random">
        <route edges="30193_op"/>
    </vehicle>
    <vehicle id="veh_652970" depart="29.31645569620253" departLane="random">
        <route edges="30067_sa 30068_sa 30069_sa 30069_op"/>
    </vehicle>
    <vehicle id="veh_250453" depart="29.468354430379748" departLane="random">
        <route edges="1073_op 1073_sa"/>
    </vehicle>
    <vehicle id="veh_853490" depart="29.620253164556964" departLane="random">
        <route edges="30185_sa 30181_op 1066_sa 1064_op 1063_op 30192_sa 1225_sa 1110_sa 1108_sa 1109_op 1107_op 1098_op 
1097_op 1127_op 1041_sa 1043_sa 1031_sa 1032_sa"/>
    </vehicle>
    <vehicle id="veh_65794" depart="29.924050632911392" departLane="random">
        <route edges="21188_op 21187_op 21186_op 21185_op 21217_op 21218_op 15207_op"/>
    </vehicle>
    <vehicle id="veh_531635" depart="30.075949367088608" departLane="random">
        <route edges="30030_op 30030_sa"/>
    </vehicle>
    <vehicle id="veh_48098" depart="30.37974683544304" departLane="random">
        <route edges="1056_sa 1025_sa 8008_sa 21203_sa 21204_sa 21230_op 21231_op 21215_sa 21216_sa"/>
    </vehicle>
    <vehicle id="veh_325925" depart="30.531645569620256" departLane="random">
        <route edges="21259_sa 21258_sa 21265_op 21251_sa 8006_op 15809_op 1124_op 1029_sa 1032_op 1031_op"/>
    </vehicle>
    <vehicle id="veh_376684" depart="30.683544303797465" departLane="random">
        <route edges="21138_op 21229_op 21204_op 21203_op 8008_op 1025_op 1026_op 1054_op 1053_sa 1013_sa 1011_sa 1012_sa 
1010_sa 1018_sa 1061_op 1021_sa 1005_op"/>
    </vehicle>
    <vehicle id="veh_692727" depart="30.83544303797468" departLane="random">
        <route edges="21247_sa 21137_op 21135_sa 21135_op"/>
    </vehicle>
    <vehicle id="veh_1295128" depart="30.987341772151897" departLane="random">
        <route edges="1044_sa 1028_sa 1038_sa 1039_sa 1113_sa 1124_op 21136_op 21248_sa 21137_sa"/>
    </vehicle>
    <vehicle id="veh_1202849" depart="31.29113924050633" departLane="random">
        <route edges="1048_op 1048_sa"/>
    </vehicle>
    <vehicle id="veh_527997" depart="31.443037974683545" departLane="random">
        <route edges="1004_op 1007_sa 1018_sa 1059_sa 1106_sa"/>
    </vehicle>
    <vehicle id="veh_1202744" depart="31.898734177215186" departLane="random">
        <route edges="21216_op 21215_op 21214_op 15342_sa 1042_sa 1014_sa 1009_sa 1007_sa 1010_op"/>
    </vehicle>
    <vehicle id="veh_1565968" depart="32.050632911392405" departLane="random">
        <route edges="1063_sa 1064_sa 1066_op 1066_sa 1231_op 1231_sa 1064_op 1063_op 1060_op 1201_op 1203_op 1202_op 
1003_op 1008_op 1011_sa 1014_op 1034_op"/>
    </vehicle>
    <vehicle id="veh_591200" depart="32.20253164556962" departLane="random">
        <route edges="1109_op 1061_sa 1018_op 1010_op 1012_op 1014_op 1042_op 15342_op 21214_sa 21231_sa 21209_sa"/>
    </vehicle>
    <vehicle id="veh_810794" depart="32.35443037974684" departLane="random">
        <route edges="21135_sa 1048_op 1131_op 1045_sa 1034_sa 8005_sa 1016_sa 1008_sa 1003_sa 1202_sa 1203_sa 1201_sa 
30193_sa"/>
    </vehicle>
    <vehicle id="veh_1137553" depart="32.50632911392405" departLane="random">
        <route edges="1100_sa 1122_op 1122_sa 1100_op"/>
    </vehicle>
    <vehicle id="veh_295566" depart="32.65822784810127" departLane="random">
        <route edges="21216_op 21215_op 21231_sa 21208_op"/>
    </vehicle>
    <vehicle id="veh_1715140" depart="32.810126582278485" departLane="random">
        <route edges="21163_op 21179_sa 21178_sa 21171_sa"/>
    </vehicle>
    <vehicle id="veh_203565" depart="33.11392405063292" departLane="random">
        <route edges="1007_op 1004_sa 1023_sa 1227_sa 1226_sa 30192_op 1063_sa 1064_sa"/>
    </vehicle>
    <vehicle id="veh_931796" depart="33.265822784810126" departLane="random">
        <route edges="30099_op"/>
    </vehicle>
    <vehicle id="veh_155896" depart="33.41772151898734" departLane="random">
        <route edges="30097_op 30120_op 30118_op 30116_sa"/>
    </vehicle>
    <vehicle id="veh_1746354" depart="33.56962025316456" departLane="random">
        <route edges="15809_sa"/>
    </vehicle>
    <vehicle id="veh_949209" depart="33.721518987341774" departLane="random">
        <route edges="1231_sa 1076_sa 1076_op 1076_sa 1076_op 1064_op 30200_sa 30201_sa 30201_op"/>
    </vehicle>
    <vehicle id="veh_1286463" depart="34.17721518987342" departLane="random">
        <route edges="8009_sa 1220_op 1222_op 1221_op 1218_op 1219_op 1079_op"/>
    </vehicle>
    <vehicle id="veh_1365043" depart="34.32911392405064" departLane="random">
        <route edges="1201_sa 1060_sa 1063_sa"/>
    </vehicle>
    <vehicle id="veh_1066445" depart="34.48101265822785" departLane="random">
        <route edges="21216_op 21215_op 21242_op 21242_sa 21214_op 15342_sa 1042_sa 1014_sa 1009_sa 1004_sa 1023_sa 
1227_sa 1226_sa 30192_op 1060_op"/>
    </vehicle>
    <vehicle id="veh_1728056" depart="34.63291139240506" departLane="random">
        <route edges="1214_sa"/>
    </vehicle>
    <vehicle id="veh_1520153" depart="34.78481012658228" departLane="random">
        <route edges="1022_op 1021_op 1061_sa 1059_sa"/>
    </vehicle>
    <vehicle id="veh_881950" depart="35.08860759493671" departLane="random">
        <route edges="21266_sa 21251_sa 8006_op 15809_op 1113_op 1113_sa"/>
    </vehicle>