<?xml version="1.0" encoding="UTF-8"?>

<!-- generated on 2023-07-10 09:42:28 by Eclipse SUMO netconvert Version 1.18.0
<configuration xmlns:xsi="http://www.w3.org/2001/XMLSchema-instance" xsi:noNamespaceSchemaLocation="http://sumo.dlr.de/xsd/netconvertConfiguration.xsd">

    <input>
        <node-files value="simulationFiles/xuancheng.nod.xml"/>
        <edge-files value="simulationFiles/xuancheng.edg.xml"/>
    </input>

    <output>
        <output-file value="simulationFiles/xuancheng.net.xml"/>
    </output>

</configuration>
-->

<net version="1.16" junctionCornerDetail="5" limitTurnSpeed="5.50" xmlns:xsi="http://www.w3.org/2001/XMLSchema-instance" xsi:noNamespaceSchemaLocation="http://sumo.dlr.de/xsd/net_file.xsd">

    <location netOffset="-13204388.69,-3595820.56" convBoundary="0.00,0.00,32384.21,20336.40" origBoundary="13204388.69,3595820.56,13236772.90,3616156.96" projParameter="!"/>

    <edge id=":4393_0" function="internal">
        <lane id=":4393_0_0" index="0" speed="13.89" length="22.13" shape="11899.87,4081.53 11885.46,4064.64"/>
        <lane id=":4393_0_1" index="1" speed="13.89" length="22.13" shape="11902.27,4079.41 11887.95,4062.63"/>
    </edge>
    <edge id=":4393_2" function="internal">
        <lane id=":4393_2_0" index="0" speed="8.84" length="5.75" shape="11902.27,4079.41 11899.10,4074.61"/>
    </edge>
    <edge id=":4393_3" function="internal">
        <lane id=":4393_3_0" index="0" speed="3.65" length="1.44" shape="11902.27,4079.41 11902.07,4077.99"/>
    </edge>
    <edge id=":4393_11" function="internal">
        <lane id=":4393_11_0" index="0" speed="8.84" length="16.98" shape="11899.10,4074.61 11898.61,4073.88 11898.14,4069.17 11900.86,4065.29 11906.75,4062.25"/>
    </edge>
    <edge id=":4393_12" function="internal">
        <lane id=":4393_12_0" index="0" speed="3.65" length="3.23" shape="11902.07,4077.99 11902.41,4077.16 11903.27,4076.93 11904.67,4077.30"/>
    </edge>
    <edge id=":4393_4" function="internal">
        <lane id=":4393_4_0" index="0" speed="5.83" length="9.13" shape="11908.87,4068.29 11906.50,4069.51 11905.41,4071.07 11905.60,4072.96 11907.07,4075.18"/>
    </edge>
    <edge id=":4393_5" function="internal">
        <lane id=":4393_5_0" index="0" speed="11.23" length="21.38" shape="11907.81,4065.27 11901.40,4066.92 11895.95,4067.03 11891.46,4065.60 11887.95,4062.63"/>
    </edge>
    <edge id=":4393_6" function="internal">
        <lane id=":4393_6_0" index="0" speed="3.65" length="4.67" shape="11907.81,4065.27 11906.41,4064.91 11905.77,4064.29 11905.88,4063.40 11906.75,4062.25"/>
    </edge>
    <edge id=":4393_7" function="internal">
        <lane id=":4393_7_0" index="0" speed="9.03" length="13.53" shape="11892.92,4058.60 11894.93,4060.13 11897.73,4060.75 11901.31,4060.45 11905.69,4059.23"/>
    </edge>
    <edge id=":4393_8" function="internal">
        <lane id=":4393_8_0" index="0" speed="13.89" length="21.87" shape="11892.92,4058.60 11907.07,4075.18"/>
        <lane id=":4393_8_1" index="1" speed="13.89" length="21.87" shape="11890.43,4060.61 11904.67,4077.30"/>
    </edge>
    <edge id=":4393_10" function="internal">
        <lane id=":4393_10_0" index="0" speed="3.65" length="1.44" shape="11890.43,4060.61 11890.57,4062.05"/>
    </edge>
    <edge id=":4393_13" function="internal">
        <lane id=":4393_13_0" index="0" speed="3.65" length="3.23" shape="11890.57,4062.05 11890.20,4062.86 11889.32,4063.06 11887.95,4062.63"/>
    </edge>
    <edge id=":4415_0" function="internal">
        <lane id=":4415_0_0" index="0" speed="13.89" length="21.47" shape="17512.91,4378.70 17508.52,4383.01 17505.32,4386.20 17502.25,4389.50 17498.24,4394.16"/>
        <lane id=":4415_0_1" index="1" speed="13.89" length="21.47" shape="17510.66,4376.43 17506.24,4380.76 17502.98,4384.03 17499.83,4387.41 17495.79,4392.10"/>
    </edge>
    <edge id=":4415_2" function="internal">
        <lane id=":4415_2_0" index="0" speed="8.82" length="5.31" shape="17510.66,4376.43 17506.41,4379.61"/>
    </edge>
    <edge id=":4415_3" function="internal">
        <lane id=":4415_3_0" index="0" speed="3.65" length="1.44" shape="17510.66,4376.43 17509.25,4376.70"/>
    </edge>
    <edge id=":4415_11" function="internal">
        <lane id=":4415_11_0" index="0" speed="8.82" length="18.06" shape="17506.41,4379.61 17505.14,4380.56 17500.41,4381.28 17496.47,4378.56 17493.32,4372.42"/>
    </edge>
    <edge id=":4415_12" function="internal">
        <lane id=":4415_12_0" index="0" speed="3.65" length="3.23" shape="17509.25,4376.70 17508.40,4376.41 17508.12,4375.56 17508.41,4374.15"/>
    </edge>
    <edge id=":4415_4" function="internal">
        <lane id=":4415_4_0" index="0" speed="5.76" length="9.17" shape="17499.36,4370.30 17500.59,4372.71 17502.14,4373.78 17503.99,4373.50 17506.16,4371.87"/>
    </edge>
    <edge id=":4415_5" function="internal">
        <lane id=":4415_5_0" index="0" speed="12.56" length="21.62" shape="17496.34,4371.36 17498.17,4377.98 17498.69,4383.64 17497.89,4388.34 17495.79,4392.10"/>
    </edge>
    <edge id=":4415_6" function="internal">
        <lane id=":4415_6_0" index="0" speed="3.65" length="4.67" shape="17496.34,4371.36 17495.98,4372.76 17495.36,4373.40 17494.47,4373.29 17493.32,4372.42"/>
    </edge>
    <edge id=":4415_7" function="internal">
        <lane id=":4415_7_0" index="0" speed="10.54" length="15.03" shape="17490.90,4387.97 17492.05,4385.66 17492.33,4382.47 17491.75,4378.41 17490.30,4373.48"/>
    </edge>
    <edge id=":4415_8" function="internal">
        <lane id=":4415_8_0" index="0" speed="13.89" length="22.05" shape="17490.90,4387.97 17495.00,4383.22 17498.28,4379.69 17501.68,4376.28 17506.16,4371.87"/>
        <lane id=":4415_8_1" index="1" speed="13.89" length="22.05" shape="17493.34,4390.03 17497.42,4385.31 17500.63,4381.86 17503.96,4378.52 17508.41,4374.15"/>
    </edge>
    <edge id=":4415_10" function="internal">
        <lane id=":4415_10_0" index="0" speed="3.65" length="1.44" shape="17493.34,4390.03 17494.73,4389.63"/>
    </edge>
    <edge id=":4415_13" function="internal">
        <lane id=":4415_13_0" index="0" speed="3.65" length="3.23" shape="17494.73,4389.63 17495.60,4389.84 17495.95,4390.66 17495.79,4392.10"/>
    </edge>
    <edge id=":4423_0" function="internal">
        <lane id=":4423_0_0" index="0" speed="7.73" length="11.21" shape="12396.87,4587.71 12394.81,4586.35 12392.42,4586.02 12389.68,4586.70 12386.61,4588.40"/>
    </edge>
    <edge id=":4423_1" function="internal">
        <lane id=":4423_1_0" index="0" speed="13.89" length="21.05" shape="12396.87,4587.71 12381.87,4572.95"/>
        <lane id=":4423_1_1" index="1" speed="13.89" length="21.05" shape="12399.12,4585.43 12384.12,4570.67"/>
    </edge>
    <edge id=":4423_3" function="internal">
        <lane id=":4423_3_0" index="0" speed="3.65" length="1.44" shape="12399.12,4585.43 12398.82,4584.02"/>
    </edge>
    <edge id=":4423_11" function="internal">
        <lane id=":4423_11_0" index="0" speed="3.65" length="3.23" shape="12398.82,4584.02 12399.10,4583.17 12399.95,4582.88 12401.36,4583.15"/>
    </edge>
    <edge id=":4423_4" function="internal">
        <lane id=":4423_4_0" index="0" speed="13.89" length="21.05" shape="12388.61,4566.11 12403.61,4580.87"/>
        <lane id=":4423_4_1" index="1" speed="13.89" length="21.05" shape="12386.36,4568.39 12401.36,4583.15"/>
    </edge>
    <edge id=":4423_6" function="internal">
        <lane id=":4423_6_0" index="0" speed="9.00" length="4.97" shape="12386.36,4568.39 12389.37,4572.34"/>
    </edge>
    <edge id=":4423_7" function="internal">
        <lane id=":4423_7_0" index="0" speed="3.65" length="1.44" shape="12386.36,4568.39 12386.66,4569.80"/>
    </edge>
    <edge id=":4423_12" function="internal">
        <lane id=":4423_12_0" index="0" speed="9.00" length="15.94" shape="12389.37,4572.34 12389.94,4573.08 12390.87,4577.54 12389.16,4581.77 12384.81,4585.76"/>
    </edge>
    <edge id=":4423_13" function="internal">
        <lane id=":4423_13_0" index="0" speed="3.65" length="3.23" shape="12386.66,4569.80 12386.38,4570.65 12385.53,4570.94 12384.12,4570.67"/>
    </edge>
    <edge id=":4423_8" function="internal">
        <lane id=":4423_8_0" index="0" speed="6.13" length="9.06" shape="12381.20,4580.47 12383.08,4578.74 12383.82,4576.91 12383.42,4574.98 12381.87,4572.95"/>
    </edge>
    <edge id=":4423_9" function="internal">
        <lane id=":4423_9_0" index="0" speed="10.18" length="20.11" shape="12383.01,4583.11 12388.21,4580.35 12393.00,4579.43 12397.39,4580.36 12401.36,4583.15"/>
    </edge>
    <edge id=":4423_10" function="internal">
        <lane id=":4423_10_0" index="0" speed="3.65" length="4.67" shape="12383.01,4583.11 12384.45,4583.10 12385.23,4583.53 12385.35,4584.42 12384.81,4585.76"/>
    </edge>
    <edge id=":4438_0" function="internal">
        <lane id=":4438_0_0" index="0" speed="7.34" length="10.50" shape="11324.55,4747.98 11322.60,4745.47 11320.50,4743.99 11318.26,4743.54 11315.87,4744.11"/>
    </edge>
    <edge id=":4438_1" function="internal">
        <lane id=":4438_1_0" index="0" speed="9.07" length="20.36" shape="11327.27,4746.29 11324.99,4741.08 11325.06,4736.59 11327.49,4732.80 11332.27,4729.73"/>
    </edge>
    <edge id=":4438_2" function="internal">
        <lane id=":4438_2_0" index="0" speed="3.65" length="4.67" shape="11327.27,4746.29 11327.32,4744.85 11327.78,4744.08 11328.68,4744.00 11329.99,4744.60"/>
    </edge>
    <edge id=":4438_3" function="internal">
        <lane id=":4438_3_0" index="0" speed="6.25" length="9.05" shape="11334.93,4735.55 11332.80,4736.91 11331.72,4738.60 11331.69,4740.59 11332.71,4742.91"/>
    </edge>
    <edge id=":4438_4" function="internal">
        <lane id=":4438_4_0" index="0" speed="13.89" length="20.87" shape="11334.93,4735.55 11315.87,4744.11"/>
        <lane id=":4438_4_1" index="1" speed="13.89" length="20.87" shape="11333.60,4732.64 11314.57,4741.18"/>
    </edge>
    <edge id=":4438_6" function="internal">
        <lane id=":4438_6_0" index="0" speed="3.65" length="1.44" shape="11333.60,4732.64 11332.17,4732.41"/>
    </edge>
    <edge id=":4438_11" function="internal">
        <lane id=":4438_11_0" index="0" speed="3.65" length="3.23" shape="11332.17,4732.41 11331.48,4731.85 11331.51,4730.95 11332.27,4729.73"/>
    </edge>
    <edge id=":4438_7" function="internal">
        <lane id=":4438_7_0" index="0" speed="13.89" length="20.79" shape="11311.99,4735.33 11330.94,4726.82"/>
        <lane id=":4438_7_1" index="1" speed="13.89" length="20.79" shape="11313.28,4738.26 11332.27,4729.73"/>
    </edge>
    <edge id=":4438_9" function="internal">
        <lane id=":4438_9_0" index="0" speed="9.88" length="4.32" shape="11313.28,4738.26 11317.46,4737.16"/>
    </edge>
    <edge id=":4438_10" function="internal">
        <lane id=":4438_10_0" index="0" speed="3.65" length="1.44" shape="11313.28,4738.26 11314.70,4738.50"/>
    </edge>
    <edge id=":4438_12" function="internal">
        <lane id=":4438_12_0" index="0" speed="9.88" length="15.46" shape="11317.46,4737.16 11318.08,4737.00 11322.47,4737.63 11326.43,4740.17 11329.99,4744.60"/>
    </edge>
    <edge id=":4438_13" function="internal">
        <lane id=":4438_13_0" index="0" speed="3.65" length="3.23" shape="11314.70,4738.50 11315.39,4739.07 11315.35,4739.97 11314.57,4741.18"/>
    </edge>
    <edge id=":4439_0" function="internal">
        <lane id=":4439_0_0" index="0" speed="13.89" length="0.35" shape="11813.04,4576.51 11812.77,4576.19"/>
        <lane id=":4439_0_1" index="1" speed="13.89" length="0.35" shape="11815.46,4574.42 11815.27,4574.19"/>
    </edge>
    <edge id=":4439_2" function="internal">
        <lane id=":4439_2_0" index="0" speed="13.89" length="0.12" shape="11820.26,4570.19 11820.30,4570.23"/>
        <lane id=":4439_2_1" index="1" speed="13.89" length="0.12" shape="11817.77,4572.19 11817.88,4572.32"/>
    </edge>
    <edge id=":4440_0" function="internal">
        <lane id=":4440_0_0" index="0" speed="13.89" length="20.87" shape="14925.38,4709.99 14906.34,4701.45"/>
        <lane id=":4440_0_1" index="1" speed="13.89" length="20.87" shape="14926.69,4707.07 14907.65,4698.53"/>
    </edge>
    <edge id=":4440_2" function="internal">
        <lane id=":4440_2_0" index="0" speed="9.71" length="4.60" shape="14926.69,4707.07 14922.83,4704.56"/>
    </edge>
    <edge id=":4440_3" function="internal">
        <lane id=":4440_3_0" index="0" speed="3.65" length="1.44" shape="14926.69,4707.07 14925.92,4705.85"/>
    </edge>
    <edge id=":4440_11" function="internal">
        <lane id=":4440_11_0" index="0" speed="9.71" length="15.10" shape="14922.83,4704.56 14922.46,4704.32 14920.00,4700.65 14919.30,4696.07 14920.38,4690.57"/>
    </edge>
    <edge id=":4440_12" function="internal">
        <lane id=":4440_12_0" index="0" speed="3.65" length="3.23" shape="14925.92,4705.85 14925.88,4704.95 14926.58,4704.39 14928.00,4704.15"/>
    </edge>
    <edge id=":4440_4" function="internal">
        <lane id=":4440_4_0" index="0" speed="7.12" length="10.14" shape="14926.46,4692.57 14925.84,4695.52 14926.11,4697.95 14927.27,4699.85 14929.31,4701.23"/>
    </edge>
    <edge id=":4440_5" function="internal">
        <lane id=":4440_5_0" index="0" speed="9.10" length="20.16" shape="14923.42,4691.57 14920.93,4696.59 14917.46,4699.42 14913.04,4700.07 14907.65,4698.53"/>
    </edge>
    <edge id=":4440_6" function="internal">
        <lane id=":4440_6_0" index="0" speed="3.65" length="4.67" shape="14923.42,4691.57 14922.29,4692.46 14921.40,4692.59 14920.77,4691.96 14920.38,4690.57"/>
    </edge>
    <edge id=":4440_7" function="internal">
        <lane id=":4440_7_0" index="0" speed="6.29" length="9.04" shape="14910.27,4692.69 14912.69,4693.38 14914.67,4693.09 14916.22,4691.82 14917.34,4689.57"/>
    </edge>
    <edge id=":4440_8" function="internal">
        <lane id=":4440_8_0" index="0" speed="13.89" length="20.87" shape="14910.27,4692.69 14929.31,4701.23"/>
        <lane id=":4440_8_1" index="1" speed="13.89" length="20.87" shape="14908.96,4695.61 14928.00,4704.15"/>
    </edge>
    <edge id=":4440_10" function="internal">
        <lane id=":4440_10_0" index="0" speed="3.65" length="1.44" shape="14908.96,4695.61 14909.73,4696.83"/>
    </edge>
    <edge id=":4440_13" function="internal">
        <lane id=":4440_13_0" index="0" speed="3.65" length="3.23" shape="14909.73,4696.83 14909.76,4697.72 14909.07,4698.29 14907.65,4698.53"/>
    </edge>
    <edge id=":4448_0" function="internal">
        <lane id=":4448_0_0" index="0" speed="6.79" length="9.71" shape="12019.00,4846.72 12017.12,4844.83 12015.09,4843.96 12012.90,4844.12 12010.54,4845.30"/>
    </edge>
    <edge id=":4448_1" function="internal">
        <lane id=":4448_1_0" index="0" speed="13.89" length="21.26" shape="12019.00,4846.72 12006.31,4829.66"/>
        <lane id=":4448_1_1" index="1" speed="13.89" length="21.26" shape="12021.56,4844.81 12008.88,4827.75"/>
    </edge>
    <edge id=":4448_3" function="internal">
        <lane id=":4448_3_0" index="0" speed="9.19" length="4.99" shape="12021.56,4844.81 12019.19,4840.43"/>
    </edge>
    <edge id=":4448_4" function="internal">
        <lane id=":4448_4_0" index="0" speed="3.65" length="1.44" shape="12021.56,4844.81 12021.49,4843.37"/>
    </edge>
    <edge id=":4448_20" function="internal">
        <lane id=":4448_20_0" index="0" speed="9.19" length="14.67" shape="12019.19,4840.43 12018.98,4840.05 12018.59,4835.65 12020.39,4831.63 12024.39,4827.97"/>
    </edge>
    <edge id=":4448_21" function="internal">
        <lane id=":4448_21_0" index="0" speed="3.65" length="3.23" shape="12021.49,4843.37 12021.89,4842.57 12022.77,4842.42 12024.13,4842.90"/>
    </edge>
    <edge id=":4448_5" function="internal">
        <lane id=":4448_5_0" index="0" speed="6.42" length="9.04" shape="12028.00,4833.25 12026.16,4834.93 12025.33,4836.79 12025.51,4838.81 12026.70,4840.99"/>
    </edge>
    <edge id=":4448_6" function="internal">
        <lane id=":4448_6_0" index="0" speed="13.89" length="21.22" shape="12028.00,4833.25 12010.54,4845.30"/>
        <lane id=":4448_6_1" index="1" speed="13.89" length="21.22" shape="12026.19,4830.61 12008.71,4842.68"/>
    </edge>
    <edge id=":4448_8" function="internal">
        <lane id=":4448_8_0" index="0" speed="9.51" length="19.84" shape="12026.19,4830.61 12021.33,4833.01 12016.83,4833.34 12012.68,4831.58 12008.88,4827.75"/>
    </edge>
    <edge id=":4448_9" function="internal">
        <lane id=":4448_9_0" index="0" speed="3.65" length="4.67" shape="12026.19,4830.61 12024.75,4830.63 12023.97,4830.19 12023.85,4829.30 12024.39,4827.97"/>
    </edge>
    <edge id=":4448_10" function="internal">
        <lane id=":4448_10_0" index="0" speed="6.85" length="9.81" shape="12014.02,4823.93 12015.89,4825.82 12017.94,4826.68 12020.18,4826.52 12022.58,4825.32"/>
    </edge>
    <edge id=":4448_11" function="internal">
        <lane id=":4448_11_0" index="0" speed="13.89" length="21.26" shape="12014.02,4823.93 12026.70,4840.99"/>
        <lane id=":4448_11_1" index="1" speed="13.89" length="21.26" shape="12011.45,4825.84 12024.13,4842.90"/>
    </edge>
    <edge id=":4448_13" function="internal">
        <lane id=":4448_13_0" index="0" speed="9.21" length="5.00" shape="12011.45,4825.84 12013.83,4830.24"/>
    </edge>
    <edge id=":4448_14" function="internal">
        <lane id=":4448_14_0" index="0" speed="3.65" length="1.44" shape="12011.45,4825.84 12011.52,4827.28"/>
    </edge>
    <edge id=":4448_22" function="internal">
        <lane id=":4448_22_0" index="0" speed="9.21" length="14.59" shape="12013.83,4830.24 12014.02,4830.58 12014.42,4834.97 12012.65,4839.00 12008.71,4842.68"/>
    </edge>
    <edge id=":4448_23" function="internal">
        <lane id=":4448_23_0" index="0" speed="3.65" length="3.23" shape="12011.52,4827.28 12011.12,4828.08 12010.24,4828.24 12008.88,4827.75"/>
    </edge>
    <edge id=":4448_15" function="internal">
        <lane id=":4448_15_0" index="0" speed="6.44" length="9.03" shape="12005.05,4837.43 12006.87,4835.73 12007.68,4833.87 12007.50,4831.85 12006.31,4829.66"/>
    </edge>
    <edge id=":4448_16" function="internal">
        <lane id=":4448_16_0" index="0" speed="13.89" length="21.29" shape="12005.05,4837.43 12022.58,4825.32"/>
        <lane id=":4448_16_1" index="1" speed="13.89" length="21.29" shape="12006.88,4840.05 12024.39,4827.97"/>
    </edge>
    <edge id=":4448_18" function="internal">
        <lane id=":4448_18_0" index="0" speed="9.46" length="19.81" shape="12006.88,4840.05 12011.70,4837.62 12016.17,4837.29 12020.32,4839.05 12024.13,4842.90"/>
    </edge>
    <edge id=":4448_19" function="internal">
        <lane id=":4448_19_0" index="0" speed="3.65" length="4.67" shape="12006.88,4840.05 12008.32,4840.02 12009.11,4840.45 12009.24,4841.33 12008.71,4842.68"/>
    </edge>
    <edge id=":4464_0" function="internal">
        <lane id=":4464_0_0" index="0" speed="7.50" length="10.82" shape="10301.15,5097.09 10298.60,5094.95 10296.15,5093.86 10293.80,5093.83 10291.56,5094.84"/>
    </edge>
    <edge id=":4464_1" function="internal">
        <lane id=":4464_1_0" index="0" speed="9.03" length="20.64" shape="10303.44,5094.86 10300.03,5090.18 10299.16,5085.74 10300.84,5081.53 10305.06,5077.56"/>
    </edge>
    <edge id=":4464_2" function="internal">
        <lane id=":4464_2_0" index="0" speed="3.65" length="4.67" shape="10303.44,5094.86 10303.17,5093.44 10303.47,5092.60 10304.32,5092.32 10305.73,5092.62"/>
    </edge>
    <edge id=":4464_3" function="internal">
        <lane id=":4464_3_0" index="0" speed="6.18" length="9.05" shape="10308.73,5082.80 10306.88,5084.54 10306.14,5086.39 10306.52,5088.34 10308.02,5090.39"/>
    </edge>
    <edge id=":4464_4" function="internal">
        <lane id=":4464_4_0" index="0" speed="13.89" length="20.97" shape="10308.73,5082.80 10291.56,5094.84"/>
        <lane id=":4464_4_1" index="1" speed="13.89" length="20.97" shape="10306.89,5080.18 10289.72,5092.22"/>
    </edge>
    <edge id=":4464_6" function="internal">
        <lane id=":4464_6_0" index="0" speed="3.65" length="1.44" shape="10306.89,5080.18 10305.45,5080.22"/>
    </edge>
    <edge id=":4464_11" function="internal">
        <lane id=":4464_11_0" index="0" speed="3.65" length="3.23" shape="10305.45,5080.22 10304.66,5079.79 10304.53,5078.91 10305.06,5077.56"/>
    </edge>
    <edge id=":4464_7" function="internal">
        <lane id=":4464_7_0" index="0" speed="13.89" length="20.97" shape="10286.05,5086.98 10303.22,5074.94"/>
        <lane id=":4464_7_1" index="1" speed="13.89" length="20.97" shape="10287.88,5089.60 10305.06,5077.56"/>
    </edge>
    <edge id=":4464_9" function="internal">
        <lane id=":4464_9_0" index="0" speed="10.00" length="4.40" shape="10287.88,5089.60 10291.85,5087.69"/>
    </edge>
    <edge id=":4464_10" function="internal">
        <lane id=":4464_10_0" index="0" speed="3.65" length="1.44" shape="10287.88,5089.60 10289.33,5089.56"/>
    </edge>
    <edge id=":4464_12" function="internal">
        <lane id=":4464_12_0" index="0" speed="10.00" length="15.55" shape="10291.85,5087.69 10292.32,5087.46 10296.77,5087.25 10301.24,5088.98 10305.73,5092.62"/>
    </edge>
    <edge id=":4464_13" function="internal">
        <lane id=":4464_13_0" index="0" speed="3.65" length="3.23" shape="10289.33,5089.56 10290.11,5089.99 10290.24,5090.87 10289.72,5092.22"/>
    </edge>
    <edge id=":4471_0" function="internal">
        <lane id=":4471_0_0" index="0" speed="7.10" length="10.30" shape="12957.68,5118.68 12955.52,5117.05 12953.27,5116.48 12950.93,5116.97 12948.50,5118.52"/>
    </edge>
    <edge id=":4471_1" function="internal">
        <lane id=":4471_1_0" index="0" speed="13.89" length="21.39" shape="12957.68,5118.68 12942.55,5103.56"/>
        <lane id=":4471_1_1" index="1" speed="13.89" length="21.39" shape="12959.97,5116.44 12944.84,5101.31"/>
    </edge>
    <edge id=":4471_3" function="internal">
        <lane id=":4471_3_0" index="0" speed="9.24" length="4.68" shape="12959.97,5116.44 12957.20,5112.66"/>
    </edge>
    <edge id=":4471_4" function="internal">
        <lane id=":4471_4_0" index="0" speed="3.65" length="1.44" shape="12959.97,5116.44 12959.70,5115.02"/>
    </edge>
    <edge id=":4471_20" function="internal">
        <lane id=":4471_20_0" index="0" speed="9.24" length="14.77" shape="12957.20,5112.66 12956.81,5112.13 12955.80,5107.86 12956.95,5103.63 12960.25,5099.43"/>
    </edge>
    <edge id=":4471_21" function="internal">
        <lane id=":4471_21_0" index="0" speed="3.65" length="3.23" shape="12959.70,5115.02 12959.99,5114.17 12960.84,5113.90 12962.25,5114.20"/>
    </edge>
    <edge id=":4471_5" function="internal">
        <lane id=":4471_5_0" index="0" speed="6.48" length="9.03" shape="12964.67,5104.06 12963.14,5106.01 12962.60,5107.98 12963.07,5109.96 12964.54,5111.96"/>
    </edge>
    <edge id=":4471_6" function="internal">
        <lane id=":4471_6_0" index="0" speed="13.89" length="21.59" shape="12964.67,5104.06 12948.50,5118.52"/>
        <lane id=":4471_6_1" index="1" speed="13.89" length="21.59" shape="12962.46,5101.75 12946.44,5116.07"/>
    </edge>
    <edge id=":4471_8" function="internal">
        <lane id=":4471_8_0" index="0" speed="9.63" length="19.77" shape="12962.46,5101.75 12958.24,5104.70 12953.90,5105.61 12949.43,5104.48 12944.84,5101.31"/>
    </edge>
    <edge id=":4471_9" function="internal">
        <lane id=":4471_9_0" index="0" speed="3.65" length="4.67" shape="12962.46,5101.75 12961.04,5102.00 12960.20,5101.69 12959.94,5100.84 12960.25,5099.43"/>
    </edge>
    <edge id=":4471_10" function="internal">
        <lane id=":4471_10_0" index="0" speed="6.90" length="9.68" shape="12949.42,5096.83 12951.68,5098.39 12953.87,5098.97 12955.99,5098.54 12958.04,5097.12"/>
    </edge>
    <edge id=":4471_11" function="internal">
        <lane id=":4471_11_0" index="0" speed="13.89" length="21.39" shape="12949.42,5096.83 12964.54,5111.96"/>
        <lane id=":4471_11_1" index="1" speed="13.89" length="21.39" shape="12947.13,5099.07 12962.25,5114.20"/>
    </edge>
    <edge id=":4471_13" function="internal">
        <lane id=":4471_13_0" index="0" speed="8.98" length="5.68" shape="12947.13,5099.07 12950.63,5103.32 12950.67,5103.49"/>
    </edge>
    <edge id=":4471_14" function="internal">
        <lane id=":4471_14_0" index="0" speed="3.65" length="1.45" shape="12947.13,5099.07 12947.40,5100.49"/>
    </edge>
    <edge id=":4471_22" function="internal">
        <lane id=":4471_22_0" index="0" speed="8.98" length="14.40" shape="12950.67,5103.49 12951.68,5107.57 12950.28,5111.82 12946.44,5116.07"/>
    </edge>
    <edge id=":4471_23" function="internal">
        <lane id=":4471_23_0" index="0" speed="3.65" length="3.24" shape="12947.40,5100.49 12947.10,5101.34 12946.25,5101.61 12944.84,5101.31"/>
    </edge>
    <edge id=":4471_15" function="internal">
        <lane id=":4471_15_0" index="0" speed="6.21" length="8.99" shape="12942.33,5111.17 12944.02,5109.28 12944.63,5107.38 12944.13,5105.47 12942.55,5103.56"/>
    </edge>
    <edge id=":4471_16" function="internal">
        <lane id=":4471_16_0" index="0" speed="13.89" length="21.18" shape="12942.33,5111.17 12958.04,5097.12"/>
        <lane id=":4471_16_1" index="1" speed="13.89" length="21.18" shape="12944.39,5113.62 12960.25,5099.43"/>
    </edge>
    <edge id=":4471_18" function="internal">
        <lane id=":4471_18_0" index="0" speed="9.69" length="20.05" shape="12944.39,5113.62 12949.06,5110.67 12953.60,5109.78 12957.99,5110.96 12962.25,5114.20"/>
    </edge>
    <edge id=":4471_19" function="internal">
        <lane id=":4471_19_0" index="0" speed="3.65" length="4.67" shape="12944.39,5113.62 12945.82,5113.46 12946.64,5113.81 12946.85,5114.68 12946.44,5116.07"/>
    </edge>
    <edge id=":4474_0" function="internal">
        <lane id=":4474_0_0" index="0" speed="6.40" length="9.04" shape="11576.71,5154.89 11575.13,5152.97 11573.32,5152.05 11571.30,5152.14 11569.06,5153.23"/>
    </edge>
    <edge id=":4474_1" function="internal">
        <lane id=":4474_1_0" index="0" speed="13.89" length="21.54" shape="11576.71,5154.89 11565.52,5136.48"/>
        <lane id=":4474_1_1" index="1" speed="13.89" length="21.54" shape="11579.45,5153.23 11568.25,5134.82"/>
    </edge>
    <edge id=":4474_3" function="internal">
        <lane id=":4474_3_0" index="0" speed="9.66" length="5.03" shape="11579.45,5153.23 11577.46,5148.60"/>
    </edge>
    <edge id=":4474_4" function="internal">
        <lane id=":4474_4_0" index="0" speed="3.65" length="1.44" shape="11579.45,5153.23 11579.51,5151.79"/>
    </edge>
    <edge id=":4474_20" function="internal">
        <lane id=":4474_20_0" index="0" speed="9.66" length="15.10" shape="11577.46,5148.60 11577.30,5148.22 11577.20,5143.63 11579.17,5139.47 11583.19,5135.73"/>
    </edge>
    <edge id=":4474_21" function="internal">
        <lane id=":4474_21_0" index="0" speed="3.65" length="3.23" shape="11579.51,5151.79 11579.98,5151.03 11580.87,5150.96 11582.18,5151.57"/>
    </edge>
    <edge id=":4474_5" function="internal">
        <lane id=":4474_5_0" index="0" speed="7.05" length="10.28" shape="11586.85,5140.98 11584.79,5142.89 11583.78,5145.01 11583.82,5147.35 11584.91,5149.90"/>
    </edge>
    <edge id=":4474_6" function="internal">
        <lane id=":4474_6_0" index="0" speed="13.89" length="21.59" shape="11586.85,5140.98 11569.06,5153.23"/>
        <lane id=":4474_6_1" index="1" speed="13.89" length="21.59" shape="11585.02,5138.35 11567.26,5150.58"/>
    </edge>
    <edge id=":4474_8" function="internal">
        <lane id=":4474_8_0" index="0" speed="9.16" length="19.84" shape="11585.02,5138.35 11580.13,5140.82 11575.70,5141.05 11571.74,5139.05 11568.25,5134.82"/>
    </edge>
    <edge id=":4474_9" function="internal">
        <lane id=":4474_9_0" index="0" speed="3.65" length="4.67" shape="11585.02,5138.35 11583.58,5138.38 11582.80,5137.96 11582.67,5137.07 11583.19,5135.73"/>
    </edge>
    <edge id=":4474_10" function="internal">
        <lane id=":4474_10_0" index="0" speed="6.37" length="9.04" shape="11573.72,5131.50 11575.31,5133.42 11577.11,5134.34 11579.13,5134.23 11581.36,5133.11"/>
    </edge>
    <edge id=":4474_11" function="internal">
        <lane id=":4474_11_0" index="0" speed="13.89" length="21.54" shape="11573.72,5131.50 11584.91,5149.90"/>
        <lane id=":4474_11_1" index="1" speed="13.89" length="21.54" shape="11570.99,5133.16 11582.18,5151.57"/>
    </edge>
    <edge id=":4474_13" function="internal">
        <lane id=":4474_13_0" index="0" speed="9.60" length="5.09" shape="11570.99,5133.16 11573.00,5137.83"/>
    </edge>
    <edge id=":4474_14" function="internal">
        <lane id=":4474_14_0" index="0" speed="3.65" length="1.44" shape="11570.99,5133.16 11570.93,5134.60"/>
    </edge>
    <edge id=":4474_22" function="internal">
        <lane id=":4474_22_0" index="0" speed="9.60" length="15.01" shape="11573.00,5137.83 11573.16,5138.20 11573.26,5142.79 11571.29,5146.91 11567.26,5150.58"/>
    </edge>
    <edge id=":4474_23" function="internal">
        <lane id=":4474_23_0" index="0" speed="3.65" length="3.23" shape="11570.93,5134.60 11570.45,5135.36 11569.56,5135.43 11568.25,5134.82"/>
    </edge>
    <edge id=":4474_15" function="internal">
        <lane id=":4474_15_0" index="0" speed="6.98" length="10.15" shape="11563.67,5145.29 11565.69,5143.44 11566.68,5141.36 11566.62,5139.04 11565.52,5136.48"/>
    </edge>
    <edge id=":4474_16" function="internal">
        <lane id=":4474_16_0" index="0" speed="13.89" length="21.50" shape="11563.67,5145.29 11581.36,5133.11"/>
        <lane id=":4474_16_1" index="1" speed="13.89" length="21.50" shape="11565.46,5147.94 11583.19,5135.73"/>
    </edge>
    <edge id=":4474_18" function="internal">
        <lane id=":4474_18_0" index="0" speed="9.18" length="19.74" shape="11565.46,5147.94 11570.36,5145.55 11574.78,5145.36 11578.72,5147.36 11582.18,5151.57"/>
    </edge>
    <edge id=":4474_19" function="internal">